
     RDKit          2D

398398  0  0  0  0  0  0  0  0999 V2000
    1.2760    5.1962    0.0000 C   0  0  0  0  0  0  0  0  0  0  0  0
    2.7760    5.1962    0.0000 C   0  0  0  0  0  0  0  0  0  0  0  0
    4.2760    5.1962    0.0000 C   0  0  0  0  0  0  0  0  0  0  0  0
    5.7314    5.5591    0.0000 H   0  0  0  0  0  0  0  0  0  0  0  0
    4.6389    6.6516    0.0000 H   0  0  0  0  0  0  0  0  0  0  0  0
    4.3731    4.4049    0.0000 H   0  0  0  0  0  0  0  0  0  0  0  0
    3.5260    3.8971    0.0000 C   0  0  0  0  0  0  0  0  0  0  0  0
    2.1664    3.2634    0.0000 O   0  0  0  0  0  0  0  0  0  0  0  0
    5.0260    3.8971    0.0000 O   0  0  0  0  0  0  0  0  0  0  0  0
    5.7760    5.1962    0.0000 C   0  0  0  0  0  0  0  0  0  0  0  0
    6.5260    6.4952    0.0000 C   0  0  0  0  0  0  0  0  0  0  0  0
    7.2760    7.7942    0.0000 N   0  0  0  0  0  0  0  0  0  0  0  0
    8.0260    9.0933    0.0000 C   0  0  0  0  0  0  0  0  0  0  0  0
    8.2605   10.5748    0.0000 H   0  0  0  0  0  0  0  0  0  0  0  0
    7.0821   10.2591    0.0000 H   0  0  0  0  0  0  0  0  0  0  0  0
    6.8280    9.9960    0.0000 H   0  0  0  0  0  0  0  0  0  0  0  0
    8.5750    7.0442    0.0000 C   0  0  0  0  0  0  0  0  0  0  0  0
    9.9558    6.4582    0.0000 H   0  0  0  0  0  0  0  0  0  0  0  0
    9.4778    8.2422    0.0000 H   0  0  0  0  0  0  0  0  0  0  0  0
    9.1611    8.4250    0.0000 H   0  0  0  0  0  0  0  0  0  0  0  0
    5.9769    8.5442    0.0000 C   0  0  0  0  0  0  0  0  0  0  0  0
    4.6779    9.2942    0.0000 C   0  0  0  0  0  0  0  0  0  0  0  0
    3.3789   10.0442    0.0000 C   0  0  0  0  0  0  0  0  0  0  0  0
    2.0798   10.7942    0.0000 S   0  0  0  0  0  0  0  0  0  0  0  0
    0.8819   11.6970    0.0000 O   0  0  0  0  0  0  0  0  0  0  0  0
    2.8298   12.0933    0.0000 O   0  0  0  0  0  0  0  0  0  0  0  0
    1.3298    9.4952    0.0000 O   0  0  0  0  0  0  0  0  0  0  0  0
    4.1289   11.3433    0.0000 H   0  0  0  0  0  0  0  0  0  0  0  0
    1.9522    9.5809    0.0000 H   0  0  0  0  0  0  0  0  0  0  0  0
    5.2640   10.6750    0.0000 H   0  0  0  0  0  0  0  0  0  0  0  0
    4.6257    7.7951    0.0000 H   0  0  0  0  0  0  0  0  0  0  0  0
    6.1079    7.0500    0.0000 H   0  0  0  0  0  0  0  0  0  0  0  0
    6.5630    9.9250    0.0000 H   0  0  0  0  0  0  0  0  0  0  0  0
    7.8250    5.7452    0.0000 H   0  0  0  0  0  0  0  0  0  0  0  0
    5.8922    7.8547    0.0000 H   0  0  0  0  0  0  0  0  0  0  0  0
    5.4900    6.6686    0.0000 H   0  0  0  0  0  0  0  0  0  0  0  0
    7.1567    4.6101    0.0000 H   0  0  0  0  0  0  0  0  0  0  0  0
   -0.0484    4.4918    0.0000 H   0  0  0  0  0  0  0  0  0  0  0  0
    0.5260    3.8971    0.0000 H   0  0  0  0  0  0  0  0  0  0  0  0
    3.5260    6.4952    0.0000 C   0  0  0  0  0  0  0  0  0  0  0  0
    4.2760    5.1962    0.0000 C   0  0  0  0  0  0  0  0  0  0  0  0
    5.0260    6.4952    0.0000 C   0  0  0  0  0  0  0  0  0  0  0  0
    5.6120    7.8760    0.0000 H   0  0  0  0  0  0  0  0  0  0  0  0
    4.7400    7.9677    0.0000 H   0  0  0  0  0  0  0  0  0  0  0  0
    6.4442    6.9838    0.0000 H   0  0  0  0  0  0  0  0  0  0  0  0
    5.7760    5.1962    0.0000 C   0  0  0  0  0  0  0  0  0  0  0  0
    6.9418    6.1400    0.0000 O   0  0  0  0  0  0  0  0  0  0  0  0
    6.5260    3.8971    0.0000 O   0  0  0  0  0  0  0  0  0  0  0  0
    8.0260    3.8971    0.0000 C   0  0  0  0  0  0  0  0  0  0  0  0
    9.5260    3.8971    0.0000 C   0  0  0  0  0  0  0  0  0  0  0  0
   11.0260    3.8971    0.0000 N   0  0  0  0  0  0  0  0  0  0  0  0
   12.5260    3.8971    0.0000 C   0  0  0  0  0  0  0  0  0  0  0  0
   13.8503    3.1928    0.0000 H   0  0  0  0  0  0  0  0  0  0  0  0
   13.0636    2.4968    0.0000 H   0  0  0  0  0  0  0  0  0  0  0  0
   13.2303    5.2215    0.0000 H   0  0  0  0  0  0  0  0  0  0  0  0
   11.0260    2.3971    0.0000 C   0  0  0  0  0  0  0  0  0  0  0  0
   11.3889    0.9417    0.0000 H   0  0  0  0  0  0  0  0  0  0  0  0
   12.4263    1.8594    0.0000 H   0  0  0  0  0  0  0  0  0  0  0  0
    9.5706    2.7601    0.0000 H   0  0  0  0  0  0  0  0  0  0  0  0
   11.0260    5.3971    0.0000 C   0  0  0  0  0  0  0  0  0  0  0  0
   11.0260    6.8971    0.0000 C   0  0  0  0  0  0  0  0  0  0  0  0
   11.0260    8.3971    0.0000 C   0  0  0  0  0  0  0  0  0  0  0  0
   11.0260    9.8971    0.0000 S   0  0  0  0  0  0  0  0  0  0  0  0
   11.0260   11.3971    0.0000 O   0  0  0  0  0  0  0  0  0  0  0  0
   12.5260    9.8971    0.0000 O   0  0  0  0  0  0  0  0  0  0  0  0
    9.5260    9.8971    0.0000 O   0  0  0  0  0  0  0  0  0  0  0  0
   12.5148    8.2143    0.0000 H   0  0  0  0  0  0  0  0  0  0  0  0
   12.5148    8.5800    0.0000 H   0  0  0  0  0  0  0  0  0  0  0  0
   12.5148    7.0800    0.0000 H   0  0  0  0  0  0  0  0  0  0  0  0
    9.5372    7.0800    0.0000 H   0  0  0  0  0  0  0  0  0  0  0  0
    9.6256    5.9348    0.0000 H   0  0  0  0  0  0  0  0  0  0  0  0
   12.5260    5.3971    0.0000 H   0  0  0  0  0  0  0  0  0  0  0  0
    9.7088    5.3859    0.0000 H   0  0  0  0  0  0  0  0  0  0  0  0
   10.2303    2.5728    0.0000 H   0  0  0  0  0  0  0  0  0  0  0  0
    8.3889    5.3525    0.0000 H   0  0  0  0  0  0  0  0  0  0  0  0
    7.8431    2.4083    0.0000 H   0  0  0  0  0  0  0  0  0  0  0  0
    3.8381    7.9624    0.0000 H   0  0  0  0  0  0  0  0  0  0  0  0
    4.9985    6.7811    0.0000 H   0  0  0  0  0  0  0  0  0  0  0  0
    3.5260    3.8971    0.0000 C   0  0  0  0  0  0  0  0  0  0  0  0
    2.7760    2.5981    0.0000 C   0  0  0  0  0  0  0  0  0  0  0  0
    2.0260    1.2990    0.0000 C   0  0  0  0  0  0  0  0  0  0  0  0
    0.9839    0.2201    0.0000 H   0  0  0  0  0  0  0  0  0  0  0  0
    0.5444    1.5336    0.0000 H   0  0  0  0  0  0  0  0  0  0  0  0
    2.4893   -0.1276    0.0000 H   0  0  0  0  0  0  0  0  0  0  0  0
    1.2760    2.5981    0.0000 C   0  0  0  0  0  0  0  0  0  0  0  0
    0.0038    3.3928    0.0000 O   0  0  0  0  0  0  0  0  0  0  0  0
    0.5260    1.2990    0.0000 O   0  0  0  0  0  0  0  0  0  0  0  0
   -0.9740    1.2990    0.0000 C   0  0  0  0  0  0  0  0  0  0  0  0
   -2.4740    1.2990    0.0000 C   0  0  0  0  0  0  0  0  0  0  0  0
   -3.9740    1.2990    0.0000 N   0  0  0  0  0  0  0  0  0  0  0  0
   -5.4740    1.2990    0.0000 C   0  0  0  0  0  0  0  0  0  0  0  0
   -6.9740    1.2990    0.0000 H   0  0  0  0  0  0  0  0  0  0  0  0
   -5.6569   -0.1898    0.0000 H   0  0  0  0  0  0  0  0  0  0  0  0
   -5.6569    2.7879    0.0000 H   0  0  0  0  0  0  0  0  0  0  0  0
   -3.9740    2.7990    0.0000 C   0  0  0  0  0  0  0  0  0  0  0  0
   -4.1569    4.2879    0.0000 H   0  0  0  0  0  0  0  0  0  0  0  0
   -5.4628    2.9819    0.0000 H   0  0  0  0  0  0  0  0  0  0  0  0
   -2.4740    2.7990    0.0000 H   0  0  0  0  0  0  0  0  0  0  0  0
   -3.9740   -0.2010    0.0000 C   0  0  0  0  0  0  0  0  0  0  0  0
   -3.9740   -1.7010    0.0000 C   0  0  0  0  0  0  0  0  0  0  0  0
   -3.9740   -3.2010    0.0000 C   0  0  0  0  0  0  0  0  0  0  0  0
   -3.9740   -4.7010    0.0000 S   0  0  0  0  0  0  0  0  0  0  0  0
   -3.9740   -6.2010    0.0000 O   0  0  0  0  0  0  0  0  0  0  0  0
   -5.4740   -4.7010    0.0000 O   0  0  0  0  0  0  0  0  0  0  0  0
   -2.4740   -4.7010    0.0000 O   0  0  0  0  0  0  0  0  0  0  0  0
   -5.4740   -3.2010    0.0000 H   0  0  0  0  0  0  0  0  0  0  0  0
   -2.4740   -3.2010    0.0000 H   0  0  0  0  0  0  0  0  0  0  0  0
   -5.4740   -1.7010    0.0000 H   0  0  0  0  0  0  0  0  0  0  0  0
   -2.4740   -1.7010    0.0000 H   0  0  0  0  0  0  0  0  0  0  0  0
   -2.5737   -0.7386    0.0000 H   0  0  0  0  0  0  0  0  0  0  0  0
   -5.4628   -0.3838    0.0000 H   0  0  0  0  0  0  0  0  0  0  0  0
   -2.4740    2.7990    0.0000 H   0  0  0  0  0  0  0  0  0  0  0  0
   -2.6569   -0.1898    0.0000 H   0  0  0  0  0  0  0  0  0  0  0  0
   -0.7912    2.7879    0.0000 H   0  0  0  0  0  0  0  0  0  0  0  0
   -1.3370   -0.1564    0.0000 H   0  0  0  0  0  0  0  0  0  0  0  0
    3.7605    5.3787    0.0000 H   0  0  0  0  0  0  0  0  0  0  0  0
    2.4839    4.9761    0.0000 H   0  0  0  0  0  0  0  0  0  0  0  0
    3.5260    1.2990    0.0000 C   0  0  0  0  0  0  0  0  0  0  0  0
    4.2760    0.0000    0.0000 C   0  0  0  0  0  0  0  0  0  0  0  0
    5.0260   -1.2990    0.0000 C   0  0  0  0  0  0  0  0  0  0  0  0
    5.9287   -2.4970    0.0000 H   0  0  0  0  0  0  0  0  0  0  0  0
    4.5627   -2.7257    0.0000 H   0  0  0  0  0  0  0  0  0  0  0  0
    6.4679   -0.8857    0.0000 H   0  0  0  0  0  0  0  0  0  0  0  0
    3.5260   -1.2990    0.0000 C   0  0  0  0  0  0  0  0  0  0  0  0
    2.0260   -1.2990    0.0000 O   0  0  0  0  0  0  0  0  0  0  0  0
    4.2760   -2.5981    0.0000 O   0  0  0  0  0  0  0  0  0  0  0  0
    3.5260   -3.8971    0.0000 C   0  0  0  0  0  0  0  0  0  0  0  0
    2.7760   -5.1962    0.0000 C   0  0  0  0  0  0  0  0  0  0  0  0
    2.0260   -6.4952    0.0000 N   0  0  0  0  0  0  0  0  0  0  0  0
    1.2760   -7.7942    0.0000 C   0  0  0  0  0  0  0  0  0  0  0  0
    0.5260   -9.0933    0.0000 H   0  0  0  0  0  0  0  0  0  0  0  0
    2.4739   -8.6970    0.0000 H   0  0  0  0  0  0  0  0  0  0  0  0
   -0.1048   -7.2082    0.0000 H   0  0  0  0  0  0  0  0  0  0  0  0
    0.7269   -5.7452    0.0000 C   0  0  0  0  0  0  0  0  0  0  0  0
   -0.5721   -4.9952    0.0000 H   0  0  0  0  0  0  0  0  0  0  0  0
   -0.1758   -6.9431    0.0000 H   0  0  0  0  0  0  0  0  0  0  0  0
    1.3130   -4.3644    0.0000 H   0  0  0  0  0  0  0  0  0  0  0  0
    3.3250   -7.2452    0.0000 C   0  0  0  0  0  0  0  0  0  0  0  0
    4.6241   -7.9952    0.0000 C   0  0  0  0  0  0  0  0  0  0  0  0
    5.9231   -8.7452    0.0000 C   0  0  0  0  0  0  0  0  0  0  0  0
    7.2221   -9.4952    0.0000 S   0  0  0  0  0  0  0  0  0  0  0  0
    8.5212  -10.2452    0.0000 O   0  0  0  0  0  0  0  0  0  0  0  0
    6.4721  -10.7942    0.0000 O   0  0  0  0  0  0  0  0  0  0  0  0
    7.9721   -8.1962    0.0000 O   0  0  0  0  0  0  0  0  0  0  0  0
    6.6731   -7.4462    0.0000 H   0  0  0  0  0  0  0  0  0  0  0  0
    5.1731  -10.0442    0.0000 H   0  0  0  0  0  0  0  0  0  0  0  0
    3.8741   -9.2942    0.0000 H   0  0  0  0  0  0  0  0  0  0  0  0
    5.3741   -6.6962    0.0000 H   0  0  0  0  0  0  0  0  0  0  0  0
    4.2278   -6.0473    0.0000 H   0  0  0  0  0  0  0  0  0  0  0  0
    2.7390   -8.6260    0.0000 H   0  0  0  0  0  0  0  0  0  0  0  0
    4.1567   -5.7822    0.0000 H   0  0  0  0  0  0  0  0  0  0  0  0
    1.5780   -4.2934    0.0000 H   0  0  0  0  0  0  0  0  0  0  0  0
    2.1452   -3.3111    0.0000 H   0  0  0  0  0  0  0  0  0  0  0  0
    4.8250   -4.6471    0.0000 H   0  0  0  0  0  0  0  0  0  0  0  0
    2.1664    1.9328    0.0000 H   0  0  0  0  0  0  0  0  0  0  0  0
    2.0706    0.9361    0.0000 H   0  0  0  0  0  0  0  0  0  0  0  0
    5.7760   -0.0000    0.0000 C   0  0  0  0  0  0  0  0  0  0  0  0
    5.0260   -1.2990    0.0000 C   0  0  0  0  0  0  0  0  0  0  0  0
    5.7760   -2.5981    0.0000 C   0  0  0  0  0  0  0  0  0  0  0  0
    6.5260   -3.8971    0.0000 H   0  0  0  0  0  0  0  0  0  0  0  0
    7.2751   -2.5459    0.0000 H   0  0  0  0  0  0  0  0  0  0  0  0
    4.6970   -3.6401    0.0000 H   0  0  0  0  0  0  0  0  0  0  0  0
    3.5260   -1.2990    0.0000 C   0  0  0  0  0  0  0  0  0  0  0  0
    2.6232   -2.4970    0.0000 O   0  0  0  0  0  0  0  0  0  0  0  0
    2.7760    0.0000    0.0000 O   0  0  0  0  0  0  0  0  0  0  0  0
    1.2760    0.0000    0.0000 N   0  0  0  0  0  0  0  0  0  0  0  0
    0.3943    1.2135    0.0000 C   0  0  0  0  0  0  0  0  0  0  0  0
    0.1337    2.6907    0.0000 O   0  0  0  0  0  0  0  0  0  0  0  0
   -1.0323    0.7500    0.0000 C   0  0  0  0  0  0  0  0  0  0  0  0
   -2.2758   -0.0889    0.0000 H   0  0  0  0  0  0  0  0  0  0  0  0
   -1.5207    2.1683    0.0000 H   0  0  0  0  0  0  0  0  0  0  0  0
   -1.0323   -0.7500    0.0000 C   0  0  0  0  0  0  0  0  0  0  0  0
   -1.3442   -2.2172    0.0000 H   0  0  0  0  0  0  0  0  0  0  0  0
   -2.5177   -0.9588    0.0000 H   0  0  0  0  0  0  0  0  0  0  0  0
    0.3943   -1.2135    0.0000 C   0  0  0  0  0  0  0  0  0  0  0  0
    0.8578   -2.6401    0.0000 O   0  0  0  0  0  0  0  0  0  0  0  0
    6.5260    1.2990    0.0000 H   0  0  0  0  0  0  0  0  0  0  0  0
    7.2648    0.1828    0.0000 H   0  0  0  0  0  0  0  0  0  0  0  0
    6.5260   -1.2990    0.0000 C   0  0  0  0  0  0  0  0  0  0  0  0
    7.2760    0.0000    0.0000 C   0  0  0  0  0  0  0  0  0  0  0  0
    6.5260    1.2990    0.0000 C   0  0  0  0  0  0  0  0  0  0  0  0
    5.7760    2.5981    0.0000 H   0  0  0  0  0  0  0  0  0  0  0  0
    7.4699    2.4648    0.0000 H   0  0  0  0  0  0  0  0  0  0  0  0
    5.1078    1.7877    0.0000 H   0  0  0  0  0  0  0  0  0  0  0  0
    8.0260    1.2990    0.0000 C   0  0  0  0  0  0  0  0  0  0  0  0
    9.5148    1.1162    0.0000 O   0  0  0  0  0  0  0  0  0  0  0  0
    7.2760    2.5981    0.0000 O   0  0  0  0  0  0  0  0  0  0  0  0
    8.0260    3.8971    0.0000 C   0  0  0  0  0  0  0  0  0  0  0  0
    8.7760    5.1962    0.0000 C   0  0  0  0  0  0  0  0  0  0  0  0
    9.5260    6.4952    0.0000 N   0  0  0  0  0  0  0  0  0  0  0  0
   10.2760    7.7942    0.0000 C   0  0  0  0  0  0  0  0  0  0  0  0
   10.3282    9.2933    0.0000 H   0  0  0  0  0  0  0  0  0  0  0  0
   11.7575    7.5597    0.0000 H   0  0  0  0  0  0  0  0  0  0  0  0
    9.3321    8.9600    0.0000 H   0  0  0  0  0  0  0  0  0  0  0  0
    8.2269    7.2452    0.0000 C   0  0  0  0  0  0  0  0  0  0  0  0
    6.9279    7.9952    0.0000 H   0  0  0  0  0  0  0  0  0  0  0  0
    8.4615    8.7267    0.0000 H   0  0  0  0  0  0  0  0  0  0  0  0
    7.4769    5.9462    0.0000 H   0  0  0  0  0  0  0  0  0  0  0  0
   10.8250    5.7452    0.0000 C   0  0  0  0  0  0  0  0  0  0  0  0
   12.1241    4.9952    0.0000 C   0  0  0  0  0  0  0  0  0  0  0  0
   13.4231    4.2452    0.0000 C   0  0  0  0  0  0  0  0  0  0  0  0
   14.7221    3.4952    0.0000 S   0  0  0  0  0  0  0  0  0  0  0  0
   16.0212    2.7452    0.0000 O   0  0  0  0  0  0  0  0  0  0  0  0
   15.4721    4.7942    0.0000 O   0  0  0  0  0  0  0  0  0  0  0  0
   13.9721    2.1962    0.0000 O   0  0  0  0  0  0  0  0  0  0  0  0
   14.3258    5.4431    0.0000 H   0  0  0  0  0  0  0  0  0  0  0  0
   14.0092    5.6260    0.0000 H   0  0  0  0  0  0  0  0  0  0  0  0
   13.0268    6.1931    0.0000 H   0  0  0  0  0  0  0  0  0  0  0  0
   11.3741    3.6962    0.0000 H   0  0  0  0  0  0  0  0  0  0  0  0
   10.5905    4.2636    0.0000 H   0  0  0  0  0  0  0  0  0  0  0  0
   11.4111    7.1260    0.0000 H   0  0  0  0  0  0  0  0  0  0  0  0
   10.1567    4.6101    0.0000 H   0  0  0  0  0  0  0  0  0  0  0  0
    7.4769    5.9462    0.0000 H   0  0  0  0  0  0  0  0  0  0  0  0
    9.1049    2.8551    0.0000 H   0  0  0  0  0  0  0  0  0  0  0  0
    6.8280    4.7999    0.0000 H   0  0  0  0  0  0  0  0  0  0  0  0
    7.4287   -2.4970    0.0000 H   0  0  0  0  0  0  0  0  0  0  0  0
    8.0260   -1.2990    0.0000 H   0  0  0  0  0  0  0  0  0  0  0  0
    5.7760    0.0000    0.0000 C   0  0  0  0  0  0  0  0  0  0  0  0
    5.0260    1.2990    0.0000 C   0  0  0  0  0  0  0  0  0  0  0  0
    5.7760    2.5981    0.0000 C   0  0  0  0  0  0  0  0  0  0  0  0
    6.3620    3.9788    0.0000 H   0  0  0  0  0  0  0  0  0  0  0  0
    4.5780    3.5008    0.0000 H   0  0  0  0  0  0  0  0  0  0  0  0
    6.9248    3.5626    0.0000 H   0  0  0  0  0  0  0  0  0  0  0  0
    4.2760    2.5981    0.0000 C   0  0  0  0  0  0  0  0  0  0  0  0
    5.0260    3.8971    0.0000 O   0  0  0  0  0  0  0  0  0  0  0  0
    2.7760    2.5981    0.0000 O   0  0  0  0  0  0  0  0  0  0  0  0
    2.0260    3.8971    0.0000 C   0  0  0  0  0  0  0  0  0  0  0  0
    1.2760    5.1962    0.0000 C   0  0  0  0  0  0  0  0  0  0  0  0
    0.5260    6.4952    0.0000 N   0  0  0  0  0  0  0  0  0  0  0  0
   -0.2240    7.7942    0.0000 C   0  0  0  0  0  0  0  0  0  0  0  0
   -1.2661    8.8732    0.0000 H   0  0  0  0  0  0  0  0  0  0  0  0
   -1.6659    7.3809    0.0000 H   0  0  0  0  0  0  0  0  0  0  0  0
    0.7199    8.9600    0.0000 H   0  0  0  0  0  0  0  0  0  0  0  0
   -0.7731    5.7452    0.0000 C   0  0  0  0  0  0  0  0  0  0  0  0
   -1.8520    4.7031    0.0000 H   0  0  0  0  0  0  0  0  0  0  0  0
   -1.5231    7.0442    0.0000 H   0  0  0  0  0  0  0  0  0  0  0  0
   -0.5385    4.2636    0.0000 H   0  0  0  0  0  0  0  0  0  0  0  0
    1.8250    7.2452    0.0000 C   0  0  0  0  0  0  0  0  0  0  0  0
    3.1241    7.9952    0.0000 C   0  0  0  0  0  0  0  0  0  0  0  0
    4.4231    8.7452    0.0000 C   0  0  0  0  0  0  0  0  0  0  0  0
    5.7221    9.4952    0.0000 S   0  0  0  0  0  0  0  0  0  0  0  0
    6.6660   10.6610    0.0000 O   0  0  0  0  0  0  0  0  0  0  0  0
    5.1361   10.8760    0.0000 O   0  0  0  0  0  0  0  0  0  0  0  0
    6.4721    8.1962    0.0000 O   0  0  0  0  0  0  0  0  0  0  0  0
    3.8370   10.1260    0.0000 H   0  0  0  0  0  0  0  0  0  0  0  0
    3.5203    9.9431    0.0000 H   0  0  0  0  0  0  0  0  0  0  0  0
    3.0719    9.4943    0.0000 H   0  0  0  0  0  0  0  0  0  0  0  0
    2.7107    9.4371    0.0000 H   0  0  0  0  0  0  0  0  0  0  0  0
    2.7278    6.0473    0.0000 H   0  0  0  0  0  0  0  0  0  0  0  0
    0.9223    8.4431    0.0000 H   0  0  0  0  0  0  0  0  0  0  0  0
   -0.1048    4.6101    0.0000 H   0  0  0  0  0  0  0  0  0  0  0  0
    2.2199    6.3619    0.0000 H   0  0  0  0  0  0  0  0  0  0  0  0
    3.4679    4.3105    0.0000 H   0  0  0  0  0  0  0  0  0  0  0  0
    0.5444    3.6626    0.0000 H   0  0  0  0  0  0  0  0  0  0  0  0
    5.0260   -1.2990    0.0000 H   0  0  0  0  0  0  0  0  0  0  0  0
    4.3756    0.5377    0.0000 H   0  0  0  0  0  0  0  0  0  0  0  0
    6.5260    1.2990    0.0000 C   0  0  0  0  0  0  0  0  0  0  0  0
    7.2760    2.5981    0.0000 C   0  0  0  0  0  0  0  0  0  0  0  0
    5.7760    2.5981    0.0000 C   0  0  0  0  0  0  0  0  0  0  0  0
    4.3206    2.9610    0.0000 H   0  0  0  0  0  0  0  0  0  0  0  0
    6.3136    3.9984    0.0000 H   0  0  0  0  0  0  0  0  0  0  0  0
    4.4393    1.9174    0.0000 H   0  0  0  0  0  0  0  0  0  0  0  0
    6.5260    3.8971    0.0000 C   0  0  0  0  0  0  0  0  0  0  0  0
    7.2760    5.1962    0.0000 O   0  0  0  0  0  0  0  0  0  0  0  0
    5.0260    3.8971    0.0000 O   0  0  0  0  0  0  0  0  0  0  0  0
    4.2760    5.1962    0.0000 C   0  0  0  0  0  0  0  0  0  0  0  0
    3.5260    6.4952    0.0000 C   0  0  0  0  0  0  0  0  0  0  0  0
    2.7760    7.7942    0.0000 N   0  0  0  0  0  0  0  0  0  0  0  0
    2.0260    9.0933    0.0000 C   0  0  0  0  0  0  0  0  0  0  0  0
    0.8602   10.0372    0.0000 H   0  0  0  0  0  0  0  0  0  0  0  0
    2.8207   10.3654    0.0000 H   0  0  0  0  0  0  0  0  0  0  0  0
    0.8280    8.1905    0.0000 H   0  0  0  0  0  0  0  0  0  0  0  0
    4.0750    8.5442    0.0000 C   0  0  0  0  0  0  0  0  0  0  0  0
    4.8698    9.8164    0.0000 H   0  0  0  0  0  0  0  0  0  0  0  0
    3.0330    9.6232    0.0000 H   0  0  0  0  0  0  0  0  0  0  0  0
    5.5475    8.2583    0.0000 H   0  0  0  0  0  0  0  0  0  0  0  0
    1.4769    7.0442    0.0000 C   0  0  0  0  0  0  0  0  0  0  0  0
    0.1779    6.2942    0.0000 C   0  0  0  0  0  0  0  0  0  0  0  0
   -1.1211    5.5442    0.0000 C   0  0  0  0  0  0  0  0  0  0  0  0
   -2.4202    4.7942    0.0000 S   0  0  0  0  0  0  0  0  0  0  0  0
   -3.8009    4.2082    0.0000 O   0  0  0  0  0  0  0  0  0  0  0  0
   -3.1702    6.0933    0.0000 O   0  0  0  0  0  0  0  0  0  0  0  0
   -1.6702    3.4952    0.0000 O   0  0  0  0  0  0  0  0  0  0  0  0
   -2.1632    6.6232    0.0000 H   0  0  0  0  0  0  0  0  0  0  0  0
   -0.7078    4.1023    0.0000 H   0  0  0  0  0  0  0  0  0  0  0  0
   -0.8641    7.3732    0.0000 H   0  0  0  0  0  0  0  0  0  0  0  0
    0.2301    4.7951    0.0000 H   0  0  0  0  0  0  0  0  0  0  0  0
    1.8903    5.6023    0.0000 H   0  0  0  0  0  0  0  0  0  0  0  0
    0.3111    7.9881    0.0000 H   0  0  0  0  0  0  0  0  0  0  0  0
    4.7239    7.3979    0.0000 H   0  0  0  0  0  0  0  0  0  0  0  0
    4.4699    7.6610    0.0000 H   0  0  0  0  0  0  0  0  0  0  0  0
    4.1971    6.6941    0.0000 H   0  0  0  0  0  0  0  0  0  0  0  0
    3.1970    4.1541    0.0000 H   0  0  0  0  0  0  0  0  0  0  0  0
    7.6918    0.3552    0.0000 H   0  0  0  0  0  0  0  0  0  0  0  0
    7.9814    1.6620    0.0000 H   0  0  0  0  0  0  0  0  0  0  0  0
    2.0260    6.4952    0.0000 C   0  0  0  0  0  0  0  0  0  0  0  0
    2.7760    7.7942    0.0000 C   0  0  0  0  0  0  0  0  0  0  0  0
    4.2760    7.7942    0.0000 C   0  0  0  0  0  0  0  0  0  0  0  0
    5.7648    7.9771    0.0000 H   0  0  0  0  0  0  0  0  0  0  0  0
    4.8136    9.1946    0.0000 H   0  0  0  0  0  0  0  0  0  0  0  0
    4.4588    9.2830    0.0000 H   0  0  0  0  0  0  0  0  0  0  0  0
    2.0260    9.0933    0.0000 C   0  0  0  0  0  0  0  0  0  0  0  0
    1.7139   10.5604    0.0000 O   0  0  0  0  0  0  0  0  0  0  0  0
    0.5260    9.0933    0.0000 O   0  0  0  0  0  0  0  0  0  0  0  0
   -0.2240   10.3923    0.0000 C   0  0  0  0  0  0  0  0  0  0  0  0
   -0.9740   11.6913    0.0000 C   0  0  0  0  0  0  0  0  0  0  0  0
   -1.7240   12.9904    0.0000 N   0  0  0  0  0  0  0  0  0  0  0  0
   -2.4740   14.2894    0.0000 C   0  0  0  0  0  0  0  0  0  0  0  0
   -3.2240   15.5885    0.0000 H   0  0  0  0  0  0  0  0  0  0  0  0
   -1.2761   15.1922    0.0000 H   0  0  0  0  0  0  0  0  0  0  0  0
   -3.8548   13.7034    0.0000 H   0  0  0  0  0  0  0  0  0  0  0  0
   -3.0231   12.2404    0.0000 C   0  0  0  0  0  0  0  0  0  0  0  0
   -4.3221   11.4904    0.0000 H   0  0  0  0  0  0  0  0  0  0  0  0
   -3.9258   13.4383    0.0000 H   0  0  0  0  0  0  0  0  0  0  0  0
   -2.4370   10.8596    0.0000 H   0  0  0  0  0  0  0  0  0  0  0  0
   -0.4250   13.7404    0.0000 C   0  0  0  0  0  0  0  0  0  0  0  0
    0.8741   14.4904    0.0000 C   0  0  0  0  0  0  0  0  0  0  0  0
    2.1731   15.2404    0.0000 C   0  0  0  0  0  0  0  0  0  0  0  0
    3.4721   15.9904    0.0000 S   0  0  0  0  0  0  0  0  0  0  0  0
    4.7712   16.7404    0.0000 O   0  0  0  0  0  0  0  0  0  0  0  0
    2.7221   17.2894    0.0000 O   0  0  0  0  0  0  0  0  0  0  0  0
    4.2221   14.6913    0.0000 O   0  0  0  0  0  0  0  0  0  0  0  0
    2.9231   13.9413    0.0000 H   0  0  0  0  0  0  0  0  0  0  0  0
    1.4231   16.5394    0.0000 H   0  0  0  0  0  0  0  0  0  0  0  0
    0.1241   15.7894    0.0000 H   0  0  0  0  0  0  0  0  0  0  0  0
    1.6241   13.1913    0.0000 H   0  0  0  0  0  0  0  0  0  0  0  0
    0.4778   12.5425    0.0000 H   0  0  0  0  0  0  0  0  0  0  0  0
   -1.0110   15.1212    0.0000 H   0  0  0  0  0  0  0  0  0  0  0  0
    0.4067   12.2774    0.0000 H   0  0  0  0  0  0  0  0  0  0  0  0
   -2.1720   10.7886    0.0000 H   0  0  0  0  0  0  0  0  0  0  0  0
    0.8549   11.4344    0.0000 H   0  0  0  0  0  0  0  0  0  0  0  0
   -1.6048    9.8062    0.0000 H   0  0  0  0  0  0  0  0  0  0  0  0
    3.4442    6.9838    0.0000 H   0  0  0  0  0  0  0  0  0  0  0  0
    8.7760    2.5981    0.0000 C   0  0  0  0  0  0  0  0  0  0  0  0
   10.2760    2.5981    0.0000 C   0  0  0  0  0  0  0  0  0  0  0  0
   11.0260    3.8971    0.0000 C   0  0  0  0  0  0  0  0  0  0  0  0
   11.7760    5.1962    0.0000 H   0  0  0  0  0  0  0  0  0  0  0  0
   11.9699    2.7313    0.0000 H   0  0  0  0  0  0  0  0  0  0  0  0
   12.2239    2.9944    0.0000 H   0  0  0  0  0  0  0  0  0  0  0  0
   11.0260    1.2990    0.0000 C   0  0  0  0  0  0  0  0  0  0  0  0
   12.5260    1.2990    0.0000 O   0  0  0  0  0  0  0  0  0  0  0  0
   10.2760    0.0000    0.0000 O   0  0  0  0  0  0  0  0  0  0  0  0
   11.0260   -1.2990    0.0000 C   0  0  0  0  0  0  0  0  0  0  0  0
   11.7760   -2.5981    0.0000 C   0  0  0  0  0  0  0  0  0  0  0  0
   12.5260   -3.8971    0.0000 N   0  0  0  0  0  0  0  0  0  0  0  0
   13.2760   -5.1962    0.0000 C   0  0  0  0  0  0  0  0  0  0  0  0
   14.0260   -6.4952    0.0000 H   0  0  0  0  0  0  0  0  0  0  0  0
   14.6567   -4.6101    0.0000 H   0  0  0  0  0  0  0  0  0  0  0  0
   12.0780   -6.0989    0.0000 H   0  0  0  0  0  0  0  0  0  0  0  0
   11.2269   -4.6471    0.0000 C   0  0  0  0  0  0  0  0  0  0  0  0
    9.9279   -5.3971    0.0000 H   0  0  0  0  0  0  0  0  0  0  0  0
   11.8130   -6.0279    0.0000 H   0  0  0  0  0  0  0  0  0  0  0  0
   10.3242   -3.4492    0.0000 H   0  0  0  0  0  0  0  0  0  0  0  0
   13.8250   -3.1471    0.0000 C   0  0  0  0  0  0  0  0  0  0  0  0
   15.1241   -2.3971    0.0000 C   0  0  0  0  0  0  0  0  0  0  0  0
   16.4231   -1.6471    0.0000 C   0  0  0  0  0  0  0  0  0  0  0  0
   17.7221   -0.8971    0.0000 S   0  0  0  0  0  0  0  0  0  0  0  0
   19.0212   -0.1471    0.0000 O   0  0  0  0  0  0  0  0  0  0  0  0
   18.4721   -2.1962    0.0000 O   0  0  0  0  0  0  0  0  0  0  0  0
   16.9721    0.4019    0.0000 O   0  0  0  0  0  0  0  0  0  0  0  0
   17.1731   -2.9462    0.0000 H   0  0  0  0  0  0  0  0  0  0  0  0
   15.6731   -0.3481    0.0000 H   0  0  0  0  0  0  0  0  0  0  0  0
   15.8741   -3.6962    0.0000 H   0  0  0  0  0  0  0  0  0  0  0  0
   14.3741   -1.0981    0.0000 H   0  0  0  0  0  0  0  0  0  0  0  0
   13.2390   -1.7663    0.0000 H   0  0  0  0  0  0  0  0  0  0  0  0
   14.7278   -4.3450    0.0000 H   0  0  0  0  0  0  0  0  0  0  0  0
   12.9739   -1.6953    0.0000 H   0  0  0  0  0  0  0  0  0  0  0  0
   10.3952   -3.1841    0.0000 H   0  0  0  0  0  0  0  0  0  0  0  0
   12.3250   -0.5490    0.0000 H   0  0  0  0  0  0  0  0  0  0  0  0
    9.7269   -2.0490    0.0000 H   0  0  0  0  0  0  0  0  0  0  0  0
    9.4803    1.2737    0.0000 H   0  0  0  0  0  0  0  0  0  0  0  0
    0.3732    6.3941    0.0000 H   0  0  0  0  0  0  0  0  0  0  0  0
    1.6102    4.2523    0.0000 H   0  0  0  0  0  0  0  0  0  0  0  0
   -0.0705   10.0329    0.0000 H   0  0  0  0  0  0  0  0  0  0  0  0
    2.5421    5.3629    0.0000 H   0  0  0  0  0  0  0  0  0  0  0  0
    5.3180    6.2751    0.0000 H   0  0  0  0  0  0  0  0  0  0  0  0
    8.9399   11.2779    0.0000 H   0  0  0  0  0  0  0  0  0  0  0  0
    4.9814    4.2601    0.0000 H   0  0  0  0  0  0  0  0  0  0  0  0
    2.1899    3.9788    0.0000 H   0  0  0  0  0  0  0  0  0  0  0  0
   -1.7240   -6.0000    0.0000 H   0  0  0  0  0  0  0  0  0  0  0  0
    3.5782    2.7981    0.0000 H   0  0  0  0  0  0  0  0  0  0  0  0
    2.7872    0.1828    0.0000 H   0  0  0  0  0  0  0  0  0  0  0  0
    9.4721   -8.1962    0.0000 H   0  0  0  0  0  0  0  0  0  0  0  0
    4.5038    0.7947    0.0000 H   0  0  0  0  0  0  0  0  0  0  0  0
    3.8602   -0.3552    0.0000 H   0  0  0  0  0  0  0  0  0  0  0  0
    6.2914   -2.7806    0.0000 H   0  0  0  0  0  0  0  0  0  0  0  0
    8.7760   -0.0000    0.0000 H   0  0  0  0  0  0  0  0  0  0  0  0
   14.7221    0.8971    0.0000 H   0  0  0  0  0  0  0  0  0  0  0  0
    6.5260   -1.2990    0.0000 H   0  0  0  0  0  0  0  0  0  0  0  0
    3.5372    1.4819    0.0000 H   0  0  0  0  0  0  0  0  0  0  0  0
    7.9276    8.5591    0.0000 H   0  0  0  0  0  0  0  0  0  0  0  0
    5.7760    0.0000    0.0000 H   0  0  0  0  0  0  0  0  0  0  0  0
    8.4418    3.5420    0.0000 H   0  0  0  0  0  0  0  0  0  0  0  0
   -2.4202    2.1962    0.0000 H   0  0  0  0  0  0  0  0  0  0  0  0
    0.8280    7.3979    0.0000 H   0  0  0  0  0  0  0  0  0  0  0  0
    5.7221   14.6913    0.0000 H   0  0  0  0  0  0  0  0  0  0  0  0
    9.9082    3.5820    0.0000 H   0  0  0  0  0  0  0  0  0  0  0  0
   17.7221    1.7010    0.0000 H   0  0  0  0  0  0  0  0  0  0  0  0
  1  2  1  0
  1 38  1  0
  1 39  1  0
  1296  0  0
  2  3  1  0
  2  7  1  0
  2 40  0  0
  3  4  1  0
  3  5  1  0
  3  6  1  0
  7  8  2  0
  7  9  1  0
  9 10  1  0
 10 11  1  0
 10 36  1  0
 10 37  1  0
 11 12  1  0
 11 34  1  0
 11 35  1  0
 12 13  1  0
 12 17  1  0
 12 21  1  0
 13 14  1  0
 13 15  1  0
 13 16  1  0
 17 18  1  0
 17 19  1  0
 17 20  1  0
 21 22  1  0
 21 32  1  0
 21 33  1  0
 22 23  1  0
 22 30  1  0
 22 31  1  0
 23 24  1  0
 23 28  1  0
 23 29  1  0
 24 25  2  0
 24 26  2  0
 24 27  1  0
 40 41  1  0
 40 77  1  0
 40 78  1  0
 41 42  1  0
 41 46  1  0
 41 79  0  0
 42 43  1  0
 42 44  1  0
 42 45  1  0
 46 47  2  0
 46 48  1  0
 48 49  1  0
 49 50  1  0
 49 75  1  0
 49 76  1  0
 50 51  1  0
 50 73  1  0
 50 74  1  0
 51 52  1  0
 51 56  1  0
 51 60  1  0
 52 53  1  0
 52 54  1  0
 52 55  1  0
 56 57  1  0
 56 58  1  0
 56 59  1  0
 60 61  1  0
 60 71  1  0
 60 72  1  0
 61 62  1  0
 61 69  1  0
 61 70  1  0
 62 63  1  0
 62 67  1  0
 62 68  1  0
 63 64  2  0
 63 65  2  0
 63 66  1  0
 79 80  1  0
 79116  1  0
 79117  1  0
 80 81  1  0
 80 85  1  0
 80118  0  0
 81 82  1  0
 81 83  1  0
 81 84  1  0
 85 86  2  0
 85 87  1  0
 87 88  1  0
 88 89  1  0
 88114  1  0
 88115  1  0
 89 90  1  0
 89112  1  0
 89113  1  0
 90 91  1  0
 90 95  1  0
 90 99  1  0
 91 92  1  0
 91 93  1  0
 91 94  1  0
 95 96  1  0
 95 97  1  0
 95 98  1  0
 99100  1  0
 99110  1  0
 99111  1  0
100101  1  0
100108  1  0
100109  1  0
101102  1  0
101106  1  0
101107  1  0
102103  2  0
102104  2  0
102105  1  0
118119  1  0
118155  1  0
118156  1  0
119120  1  0
119124  1  0
119157  0  0
120121  1  0
120122  1  0
120123  1  0
124125  2  0
124126  1  0
126127  1  0
127128  1  0
127153  1  0
127154  1  0
128129  1  0
128151  1  0
128152  1  0
129130  1  0
129134  1  0
129138  1  0
130131  1  0
130132  1  0
130133  1  0
134135  1  0
134136  1  0
134137  1  0
138139  1  0
138149  1  0
138150  1  0
139140  1  0
139147  1  0
139148  1  0
140141  1  0
140145  1  0
140146  1  0
141142  2  0
141143  2  0
141144  1  0
157158  1  0
157177  1  0
157178  1  0
158159  1  0
158163  1  0
158179  0  0
159160  1  0
159161  1  0
159162  1  0
163164  2  0
163165  1  0
165166  1  0
166167  1  0
166175  1  0
167168  2  0
167169  1  0
169170  1  0
169171  1  0
169172  1  0
172173  1  0
172174  1  0
172175  1  0
175176  2  0
179180  1  0
179216  1  0
179217  1  0
180181  1  0
180185  1  0
180218  0  0
181182  1  0
181183  1  0
181184  1  0
185186  2  0
185187  1  0
187188  1  0
188189  1  0
188214  1  0
188215  1  0
189190  1  0
189212  1  0
189213  1  0
190191  1  0
190195  1  0
190199  1  0
191192  1  0
191193  1  0
191194  1  0
195196  1  0
195197  1  0
195198  1  0
199200  1  0
199210  1  0
199211  1  0
200201  1  0
200208  1  0
200209  1  0
201202  1  0
201206  1  0
201207  1  0
202203  2  0
202204  2  0
202205  1  0
218219  1  0
218255  1  0
218256  1  0
219220  1  0
219224  1  0
219257  0  0
220221  1  0
220222  1  0
220223  1  0
224225  2  0
224226  1  0
226227  1  0
227228  1  0
227253  1  0
227254  1  0
228229  1  0
228251  1  0
228252  1  0
229230  1  0
229234  1  0
229238  1  0
230231  1  0
230232  1  0
230233  1  0
234235  1  0
234236  1  0
234237  1  0
238239  1  0
238249  1  0
238250  1  0
239240  1  0
239247  1  0
239248  1  0
240241  1  0
240245  1  0
240246  1  0
241242  2  0
241243  2  0
241244  1  0
257258  1  0
257294  1  0
257295  1  0
258259  1  0
258263  1  0
258334  0  0
259260  1  0
259261  1  0
259262  1  0
263264  2  0
263265  1  0
265266  1  0
266267  1  0
266292  1  0
266293  1  0
267268  1  0
267290  1  0
267291  1  0
268269  1  0
268273  1  0
268277  1  0
269270  1  0
269271  1  0
269272  1  0
273274  1  0
273275  1  0
273276  1  0
277278  1  0
277288  1  0
277289  1  0
278279  1  0
278286  1  0
278287  1  0
279280  1  0
279284  1  0
279285  1  0
280281  2  0
280282  2  0
280283  1  0
296297  2  0
296333  1  0
297298  1  0
297302  1  0
298299  1  0
298300  1  0
298301  1  0
302303  2  0
302304  1  0
304305  1  0
305306  1  0
305331  1  0
305332  1  0
306307  1  0
306329  1  0
306330  1  0
307308  1  0
307312  1  0
307316  1  0
308309  1  0
308310  1  0
308311  1  0
312313  1  0
312314  1  0
312315  1  0
316317  1  0
316327  1  0
316328  1  0
317318  1  0
317325  1  0
317326  1  0
318319  1  0
318323  1  0
318324  1  0
319320  2  0
319321  2  0
319322  1  0
334335  2  0
334371  1  0
335336  1  0
335340  1  0
336337  1  0
336338  1  0
336339  1  0
340341  2  0
340342  1  0
342343  1  0
343344  1  0
343369  1  0
343370  1  0
344345  1  0
344367  1  0
344368  1  0
345346  1  0
345350  1  0
345354  1  0
346347  1  0
346348  1  0
346349  1  0
350351  1  0
350352  1  0
350353  1  0
354355  1  0
354365  1  0
354366  1  0
355356  1  0
355363  1  0
355364  1  0
356357  1  0
356361  1  0
356362  1  0
357358  2  0
357359  2  0
357360  1  0
  1372  1  0
  2373  1  0
 27374  1  0
 40375  1  0
 41376  1  0
 66377  1  0
 79378  1  0
 80379  1  0
105380  1  0
118381  1  0
119382  1  0
144383  1  0
157384  1  0
158385  1  0
179386  1  0
180387  1  0
205388  1  0
218389  1  0
219390  1  0
244391  1  0
257392  1  0
258393  1  0
283394  1  0
296395  1  0
322396  1  0
334397  1  0
360398  1  0
M  CHG  8  12   1  51   1  90   1 129   1 190   1 229   1 268   1 307   1
M  CHG  1 345   1
M  END
