
     RDKit          3D

371371  0  0  0  0  0  0  0  0999 V2000
    5.7010    0.5410    1.2470 C   0  0  1  0  0  0  0  0  0  0  0  0
    5.1110    0.3570   -0.1950 C   0  0  2  0  0  0  0  0  0  0  0  0
    6.3450    0.0240   -1.1010 C   0  0  1  0  0  0  0  0  0  0  0  0
    6.1580   -0.0280   -2.1780 H   0  0  0  0  0  0  0  0  0  0  0  0
    7.1280    0.8050   -1.0340 H   0  0  0  0  0  0  0  0  0  0  0  0
    6.8130   -0.9330   -0.7820 H   0  0  0  0  0  0  0  0  0  0  0  0
    4.4520    1.6560   -0.6240 C   0  0  0  0  0  0  0  0  0  0  0  0
    4.1230    1.8210   -1.7890 O   0  0  0  0  0  0  0  0  0  0  0  0
    4.2020    2.6140    0.3120 O   0  0  0  0  0  0  0  0  0  0  0  0
    3.3960    3.7200    0.1550 C   0  0  2  0  0  0  0  0  0  0  0  0
    2.2420    3.6320    1.1820 C   0  0  1  0  0  0  0  0  0  0  0  0
    1.2610    4.7740    1.1620 N   0  0  1  0  0  0  0  0  0  0  0  0
    1.7760    5.8620    2.0140 C   0  0  2  0  0  0  0  0  0  0  0  0
    1.8500    5.5250    3.0710 H   0  0  0  0  0  0  0  0  0  0  0  0
    1.1140    6.7520    1.9760 H   0  0  0  0  0  0  0  0  0  0  0  0
    2.7770    6.1850    1.6670 H   0  0  0  0  0  0  0  0  0  0  0  0
    1.0540    5.2960   -0.2280 C   0  0  1  0  0  0  0  0  0  0  0  0
    0.2210    6.0170   -0.3080 H   0  0  0  0  0  0  0  0  0  0  0  0
    1.9520    5.8140   -0.6130 H   0  0  0  0  0  0  0  0  0  0  0  0
    0.8110    4.4880   -0.9430 H   0  0  0  0  0  0  0  0  0  0  0  0
   -0.0540    4.2760    1.6780 C   0  0  2  0  0  0  0  0  0  0  0  0
   -1.1240    5.3790    2.0210 C   0  0  2  0  0  0  0  0  0  0  0  0
   -2.5860    4.9380    1.8400 C   0  0  2  0  0  0  0  0  0  0  0  0
   -3.7970    6.2860    1.7950 S   0  0  2  0  0  6  0  0  0  0  0  0
   -4.4320    6.5440    3.3660 O   0  0  0  0  0  0  0  0  0  0  0  0
   -5.0420    5.7970    0.7150 O   0  0  0  0  0  0  0  0  0  0  0  0
   -3.0420    7.6980    1.1810 O   0  0  0  0  0  1  0  0  0  0  0  0
   -2.8750    4.2000    2.6130 H   0  0  0  0  0  0  0  0  0  0  0  0
   -2.7040    4.5260    0.8210 H   0  0  0  0  0  0  0  0  0  0  0  0
   -1.0160    6.2220    1.3350 H   0  0  0  0  0  0  0  0  0  0  0  0
   -0.9620    5.7470    3.0570 H   0  0  0  0  0  0  0  0  0  0  0  0
    0.0510    3.5810    2.5470 H   0  0  0  0  0  0  0  0  0  0  0  0
   -0.4080    3.6540    0.8590 H   0  0  0  0  0  0  0  0  0  0  0  0
    1.7400    2.6600    1.0030 H   0  0  0  0  0  0  0  0  0  0  0  0
    2.6700    3.5050    2.2010 H   0  0  0  0  0  0  0  0  0  0  0  0
    2.9920    3.7460   -0.8800 H   0  0  0  0  0  0  0  0  0  0  0  0
    3.9960    4.6340    0.3240 H   0  0  0  0  0  0  0  0  0  0  0  0
    4.8690    0.7040    1.9640 H   0  0  0  0  0  0  0  0  0  0  0  0
    6.2420   -0.3780    1.5140 H   0  0  0  0  0  0  0  0  0  0  0  0
    4.0100   -0.8080   -0.1010 C   0  0  2  0  0  0  0  0  0  0  0  0
    3.0120   -1.2680   -1.2640 C   0  0  2  0  0  0  0  0  0  0  0  0
    3.9220   -1.6340   -2.4640 C   0  0  1  0  0  0  0  0  0  0  0  0
    3.4360   -1.9570   -3.3780 H   0  0  0  0  0  0  0  0  0  0  0  0
    4.4010   -0.7240   -2.8410 H   0  0  0  0  0  0  0  0  0  0  0  0
    4.6890   -2.3880   -2.1800 H   0  0  0  0  0  0  0  0  0  0  0  0
    2.0310   -0.1230   -1.6640 C   0  0  0  0  0  0  0  0  0  0  0  0
    2.0460    0.3320   -2.7990 O   0  0  0  0  0  0  0  0  0  0  0  0
    1.1210    0.3530   -0.7650 O   0  0  0  0  0  0  0  0  0  0  0  0
    0.2610    1.4610   -0.8200 C   0  0  2  0  0  0  0  0  0  0  0  0
   -0.8130    1.4940   -1.9450 C   0  0  1  0  0  0  0  0  0  0  0  0
   -2.1470    2.2150   -1.6830 N   0  0  1  0  0  0  0  0  0  0  0  0
   -1.9570    3.6680   -1.7960 C   0  0  2  0  0  0  0  0  0  0  0  0
   -2.9360    4.2060   -1.7610 H   0  0  0  0  0  0  0  0  0  0  0  0
   -1.4670    3.9400   -2.7510 H   0  0  0  0  0  0  0  0  0  0  0  0
   -1.3560    4.0470   -0.9710 H   0  0  0  0  0  0  0  0  0  0  0  0
   -3.0120    1.8240   -2.8470 C   0  0  1  0  0  0  0  0  0  0  0  0
   -4.0140    2.3040   -2.8000 H   0  0  0  0  0  0  0  0  0  0  0  0
   -2.5420    2.0670   -3.8200 H   0  0  0  0  0  0  0  0  0  0  0  0
   -3.2010    0.7220   -2.8450 H   0  0  0  0  0  0  0  0  0  0  0  0
   -3.0400    1.9480   -0.4620 C   0  0  2  0  0  0  0  0  0  0  0  0
   -2.5670    1.8360    1.0360 C   0  0  2  0  0  0  0  0  0  0  0  0
   -3.6140    1.6730    2.1840 C   0  0  1  0  0  0  0  0  0  0  0  0
   -5.2790    2.4550    2.3280 S   0  0  2  0  0  6  0  0  0  0  0  0
   -5.2330    3.7050    3.5000 O   0  0  0  0  0  0  0  0  0  0  0  0
   -6.3570    1.2150    2.8390 O   0  0  0  0  0  0  0  0  0  0  0  0
   -5.8350    3.0850    0.8360 O   0  0  0  0  0  1  0  0  0  0  0  0
   -3.1060    1.7320    3.1710 H   0  0  0  0  0  0  0  0  0  0  0  0
   -3.1060    1.7320    3.1710 H   0  0  0  0  0  0  0  0  0  0  0  0
   -2.0110    2.6630    1.3160 H   0  0  0  0  0  0  0  0  0  0  0  0
   -1.8820    1.0010    1.2050 H   0  0  0  0  0  0  0  0  0  0  0  0
   -3.5130    1.0320   -0.6480 H   0  0  0  0  0  0  0  0  0  0  0  0
   -3.8730    2.6720   -0.4570 H   0  0  0  0  0  0  0  0  0  0  0  0
   -0.3090    1.9100   -2.8470 H   0  0  0  0  0  0  0  0  0  0  0  0
   -0.9730    0.4770   -2.3250 H   0  0  0  0  0  0  0  0  0  0  0  0
    0.8420    2.3790   -0.8960 H   0  0  0  0  0  0  0  0  0  0  0  0
   -0.2150    1.4510    0.1500 H   0  0  0  0  0  0  0  0  0  0  0  0
    3.3450   -0.5340    0.7450 H   0  0  0  0  0  0  0  0  0  0  0  0
    4.5730   -1.7120    0.2270 H   0  0  0  0  0  0  0  0  0  0  0  0
    2.1710   -2.5460   -0.6990 C   0  0  2  0  0  0  0  0  0  0  0  0
    0.9690   -3.2490   -1.5090 C   0  0  2  0  0  0  0  0  0  0  0  0
    1.5440   -3.8500   -2.8050 C   0  0  1  0  0  0  0  0  0  0  0  0
    0.8050   -4.3770   -3.4150 H   0  0  0  0  0  0  0  0  0  0  0  0
    1.8350   -3.0770   -3.5130 H   0  0  0  0  0  0  0  0  0  0  0  0
    2.4120   -4.4990   -2.5690 H   0  0  0  0  0  0  0  0  0  0  0  0
   -0.0460   -2.1780   -1.8120 C   0  0  0  0  0  0  0  0  0  0  0  0
   -0.2970   -1.8340   -2.9590 O   0  0  0  0  0  0  0  0  0  0  0  0
   -0.7300   -1.6490   -0.7720 O   0  0  0  0  0  0  0  0  0  0  0  0
   -2.0170   -1.1510   -0.8230 C   0  0  2  0  0  0  0  0  0  0  0  0
   -2.7240   -1.5740    0.4120 C   0  0  1  0  0  0  0  0  0  0  0  0
   -4.2280   -1.4920    0.5390 N   0  0  1  0  0  0  0  0  0  0  0  0
   -5.1340   -0.3940    0.1100 C   0  0  1  0  0  0  0  0  0  0  0  0
   -5.0210    0.5060    0.6750 H   0  0  0  0  0  0  0  0  0  0  0  0
   -5.1180   -0.1910   -0.9850 H   0  0  0  0  0  0  0  0  0  0  0  0
   -6.2040   -0.6520    0.3230 H   0  0  0  0  0  0  0  0  0  0  0  0
   -4.7640   -2.5880   -0.3500 C   0  0  2  0  0  0  0  0  0  0  0  0
   -4.7250   -2.2980   -1.4280 H   0  0  0  0  0  0  0  0  0  0  0  0
   -5.8220   -2.8460   -0.1250 H   0  0  0  0  0  0  0  0  0  0  0  0
   -4.1680   -3.4990   -0.3620 H   0  0  0  0  0  0  0  0  0  0  0  0
   -4.5470   -1.6080    2.0110 C   0  0  1  0  0  0  0  0  0  0  0  0
   -3.4350   -1.4050    3.1820 C   0  0  1  0  0  0  0  0  0  0  0  0
   -3.6460   -1.6090    4.7320 C   0  0  2  0  0  0  0  0  0  0  0  0
   -4.5530   -0.3930    5.8300 S   0  0  2  0  0  6  0  0  0  0  0  0
   -4.3940    1.1960    5.2370 O   0  0  0  0  0  0  0  0  0  0  0  0
   -3.7620   -0.5220    7.3490 O   0  0  0  0  0  0  0  0  0  0  0  0
   -6.2290   -0.6470    6.1450 O   0  0  0  0  0  1  0  0  0  0  0  0
   -2.6250   -1.5710    5.1640 H   0  0  0  0  0  0  0  0  0  0  0  0
   -3.9110   -2.6410    4.9930 H   0  0  0  0  0  0  0  0  0  0  0  0
   -2.6180   -2.1250    3.0030 H   0  0  0  0  0  0  0  0  0  0  0  0
   -2.9580   -0.4440    3.1030 H   0  0  0  0  0  0  0  0  0  0  0  0
   -4.9680   -2.5790    2.1170 H   0  0  0  0  0  0  0  0  0  0  0  0
   -4.9810   -2.5740    2.1080 H   0  0  0  0  0  0  0  0  0  0  0  0
   -2.4070   -2.6180    0.5190 H   0  0  0  0  0  0  0  0  0  0  0  0
   -2.1710   -1.0690    1.2070 H   0  0  0  0  0  0  0  0  0  0  0  0
   -2.5380   -1.3600   -1.7790 H   0  0  0  0  0  0  0  0  0  0  0  0
   -1.9120   -0.1360   -0.6570 H   0  0  0  0  0  0  0  0  0  0  0  0
    1.7270   -2.2150    0.2650 H   0  0  0  0  0  0  0  0  0  0  0  0
    2.9070   -3.3390   -0.4320 H   0  0  0  0  0  0  0  0  0  0  0  0
    0.1770   -4.3930   -0.6280 C   0  0  2  0  0  0  0  0  0  0  0  0
   -1.1490   -5.1770   -1.1950 C   0  0  2  0  0  0  0  0  0  0  0  0
   -1.9430   -4.2680   -2.1290 C   0  0  2  0  0  0  0  0  0  0  0  0
   -2.3070   -3.4190   -1.5990 H   0  0  0  0  0  0  0  0  0  0  0  0
   -2.8760   -4.7430   -2.4640 H   0  0  0  0  0  0  0  0  0  0  0  0
   -1.3670   -3.9620   -3.0180 H   0  0  0  0  0  0  0  0  0  0  0  0
   -2.2270   -5.5620   -0.0550 C   0  0  0  0  0  0  0  0  0  0  0  0
   -3.1840   -6.0980   -0.5290 O   0  0  0  0  0  0  0  0  0  0  0  0
   -2.3550   -5.1850    1.3090 O   0  0  0  0  0  0  0  0  0  0  0  0
   -3.6060   -4.6860    1.8610 C   0  0  2  0  0  0  0  0  0  0  0  0
   -4.2890   -4.8090    3.3650 C   0  0  1  0  0  0  0  0  0  0  0  0
   -5.7470   -4.2480    3.7870 N   0  0  1  0  0  0  0  0  0  0  0  0
   -6.3160   -2.8540    4.0700 C   0  0  2  0  0  0  0  0  0  0  0  0
   -6.5620   -2.1110    3.2770 H   0  0  0  0  0  0  0  0  0  0  0  0
   -5.9190   -2.4360    4.9440 H   0  0  0  0  0  0  0  0  0  0  0  0
   -7.4090   -2.9070    4.3440 H   0  0  0  0  0  0  0  0  0  0  0  0
   -6.6530   -4.5300    2.6900 C   0  0  1  0  0  0  0  0  0  0  0  0
   -7.6770   -4.7140    3.0390 H   0  0  0  0  0  0  0  0  0  0  0  0
   -6.7110   -3.7650    1.8880 H   0  0  0  0  0  0  0  0  0  0  0  0
   -6.2880   -5.2950    2.1270 H   0  0  0  0  0  0  0  0  0  0  0  0
   -6.2100   -4.9630    5.0540 C   0  0  2  0  0  0  0  0  0  0  0  0
   -5.1700   -5.5650    5.9960 C   0  0  1  0  0  0  0  0  0  0  0  0
   -5.8470   -6.1250    7.2620 C   0  0  2  0  0  0  0  0  0  0  0  0
   -6.6530   -4.8600    8.3320 S   0  0  2  0  0  6  0  0  0  0  0  0
   -5.4980   -3.6350    8.6620 O   0  0  0  0  0  0  0  0  0  0  0  0
   -7.1290   -5.6560    9.7730 O   0  0  0  0  0  0  0  0  0  0  0  0
   -8.0600   -4.1630    7.6250 O   0  0  0  0  0  1  0  0  0  0  0  0
   -5.0740   -6.6280    7.8720 H   0  0  0  0  0  0  0  0  0  0  0  0
   -6.5950   -6.8910    6.9840 H   0  0  0  0  0  0  0  0  0  0  0  0
   -4.6720   -6.4180    5.4940 H   0  0  0  0  0  0  0  0  0  0  0  0
   -4.4220   -4.7990    6.2790 H   0  0  0  0  0  0  0  0  0  0  0  0
   -6.9950   -5.6790    4.8780 H   0  0  0  0  0  0  0  0  0  0  0  0
   -6.7700   -4.3040    5.7330 H   0  0  0  0  0  0  0  0  0  0  0  0
   -4.3500   -5.9090    3.4360 H   0  0  0  0  0  0  0  0  0  0  0  0
   -3.5240   -4.5250    4.1040 H   0  0  0  0  0  0  0  0  0  0  0  0
   -4.4120   -4.8460    1.1370 H   0  0  0  0  0  0  0  0  0  0  0  0
   -3.3120   -3.6990    1.9100 H   0  0  0  0  0  0  0  0  0  0  0  0
   -0.1530   -3.8620    0.2880 H   0  0  0  0  0  0  0  0  0  0  0  0
    0.9000   -5.1600   -0.2670 H   0  0  0  0  0  0  0  0  0  0  0  0
   -0.7190   -6.4220   -2.1510 C   0  0  1  0  0  0  0  0  0  0  0  0
   -1.4850   -7.0370   -3.4890 C   0  0  1  0  0  0  0  0  0  0  0  0
   -1.8270   -5.9590   -4.5850 C   0  0  1  0  0  0  0  0  0  0  0  0
   -0.9550   -5.3040   -4.8040 H   0  0  0  0  0  0  0  0  0  0  0  0
   -2.0560   -6.4390   -5.5530 H   0  0  0  0  0  0  0  0  0  0  0  0
   -2.7230   -5.3520   -4.3970 H   0  0  0  0  0  0  0  0  0  0  0  0
   -0.3100   -7.8670   -4.1920 C   0  0  0  0  0  0  0  0  0  0  0  0
   -0.1080   -7.7660   -5.4020 O   0  0  0  0  0  0  0  0  0  0  0  0
    0.6460   -8.5550   -3.4830 O   0  0  0  0  0  0  0  0  0  0  0  0
    1.9130   -8.7320   -3.9170 N   0  0  0  0  0  0  0  0  0  0  0  0
    2.8470   -7.7590   -4.0030 C   0  0  0  0  0  0  0  0  0  0  0  0
    2.6360   -6.6090   -3.6770 O   0  0  0  0  0  0  0  0  0  0  0  0
    4.2030   -8.2620   -4.4190 C   0  0  1  0  0  0  0  0  0  0  0  0
    4.6670   -7.7170   -5.2700 H   0  0  0  0  0  0  0  0  0  0  0  0
    4.8670   -8.2070   -3.5270 H   0  0  0  0  0  0  0  0  0  0  0  0
    3.9160   -9.7220   -4.7740 C   0  0  2  0  0  0  0  0  0  0  0  0
    4.6540  -10.4110   -4.3130 H   0  0  0  0  0  0  0  0  0  0  0  0
    3.8870   -9.8700   -5.8790 H   0  0  0  0  0  0  0  0  0  0  0  0
    2.5160   -9.9010   -4.2800 C   0  0  0  0  0  0  0  0  0  0  0  0
    1.9630  -10.9820   -4.2510 O   0  0  0  0  0  0  0  0  0  0  0  0
    0.2630   -6.1290   -2.5360 H   0  0  0  0  0  0  0  0  0  0  0  0
   -0.4620   -7.2650   -1.4800 H   0  0  0  0  0  0  0  0  0  0  0  0
   -2.8050   -7.8830   -3.1330 C   0  0  2  0  0  0  0  0  0  0  0  0
   -4.3230   -8.0760   -3.7560 C   0  0  2  0  0  0  0  0  0  0  0  0
   -4.3240   -8.2890   -5.3100 C   0  0  1  0  0  0  0  0  0  0  0  0
   -5.3530   -8.2800   -5.7090 H   0  0  0  0  0  0  0  0  0  0  0  0
   -3.8810   -7.4140   -5.8110 H   0  0  0  0  0  0  0  0  0  0  0  0
   -3.8220   -9.1510   -5.7540 H   0  0  0  0  0  0  0  0  0  0  0  0
   -5.1020   -6.8070   -3.5400 C   0  0  0  0  0  0  0  0  0  0  0  0
   -5.7110   -6.2230   -4.4300 O   0  0  0  0  0  0  0  0  0  0  0  0
   -5.1610   -6.3700   -2.2910 O   0  0  0  0  0  0  0  0  0  0  0  0
   -6.2440   -5.7650   -1.7490 C   0  0  2  0  0  0  0  0  0  0  0  0
   -7.1470   -6.8510   -1.0220 C   0  0  1  0  0  0  0  0  0  0  0  0
   -7.1620   -6.6150    0.4820 N   0  0  1  0  0  0  0  0  0  0  0  0
   -5.7380   -7.1040    0.7410 C   0  0  2  0  0  0  0  0  0  0  0  0
   -5.7370   -8.2250    0.7360 H   0  0  0  0  0  0  0  0  0  0  0  0
   -5.1970   -6.8710    1.6560 H   0  0  0  0  0  0  0  0  0  0  0  0
   -5.0290   -6.9560   -0.0260 H   0  0  0  0  0  0  0  0  0  0  0  0
   -7.9940   -5.3200    0.3420 C   0  0  1  0  0  0  0  0  0  0  0  0
   -8.4950   -4.8650    1.1980 H   0  0  0  0  0  0  0  0  0  0  0  0
   -7.5790   -4.4660   -0.2130 H   0  0  0  0  0  0  0  0  0  0  0  0
   -8.9760   -5.5640   -0.1460 H   0  0  0  0  0  0  0  0  0  0  0  0
   -7.8740   -7.2980    1.6730 C   0  0  2  0  0  0  0  0  0  0  0  0
   -7.1140   -7.6120    3.0430 C   0  0  2  0  0  0  0  0  0  0  0  0
   -7.9880   -7.9210    4.2950 C   0  0  2  0  0  0  0  0  0  0  0  0
   -9.3450   -6.8610    4.9900 S   0  0  2  0  0  6  0  0  0  0  0  0
   -9.0400   -6.6780    6.6670 O   0  0  0  0  0  0  0  0  0  0  0  0
  -10.8400   -7.6940    4.8510 O   0  0  0  0  0  0  0  0  0  0  0  0
   -9.5110   -5.3210    4.2650 O   0  0  0  0  0  1  0  0  0  0  0  0
   -7.2830   -8.0750    5.1310 H   0  0  0  0  0  0  0  0  0  0  0  0
   -8.4810   -8.8360    4.1010 H   0  0  0  0  0  0  0  0  0  0  0  0
   -6.4380   -6.8590    3.3650 H   0  0  0  0  0  0  0  0  0  0  0  0
   -6.3940   -8.4490    2.9170 H   0  0  0  0  0  0  0  0  0  0  0  0
   -8.3660   -8.1950    1.4220 H   0  0  0  0  0  0  0  0  0  0  0  0
   -8.5990   -6.6280    2.1220 H   0  0  0  0  0  0  0  0  0  0  0  0
   -8.1250   -6.8510   -1.5520 H   0  0  0  0  0  0  0  0  0  0  0  0
   -6.7440   -7.8400   -1.2660 H   0  0  0  0  0  0  0  0  0  0  0  0
   -6.7960   -5.1080   -2.4550 H   0  0  0  0  0  0  0  0  0  0  0  0
   -5.7890   -5.0760   -1.0120 H   0  0  0  0  0  0  0  0  0  0  0  0
   -3.0080   -7.6320   -2.1000 H   0  0  0  0  0  0  0  0  0  0  0  0
   -2.4240   -8.8650   -2.9850 H   0  0  0  0  0  0  0  0  0  0  0  0
   -5.0640   -9.2660   -2.8390 C   0  0  2  0  0  0  0  0  0  0  0  0
   -6.4500  -10.1670   -3.0000 C   0  0  2  0  0  0  0  0  0  0  0  0
   -6.4510  -10.7440   -4.4320 C   0  0  1  0  0  0  0  0  0  0  0  0
   -7.3920  -11.2450   -4.6810 H   0  0  0  0  0  0  0  0  0  0  0  0
   -6.4080   -9.9590   -5.1920 H   0  0  0  0  0  0  0  0  0  0  0  0
   -5.6260  -11.4460   -4.6110 H   0  0  0  0  0  0  0  0  0  0  0  0
   -7.7430   -9.3260   -2.9040 C   0  0  0  0  0  0  0  0  0  0  0  0
   -7.8780   -8.4230   -3.7170 O   0  0  0  0  0  0  0  0  0  0  0  0
   -8.8190   -9.5840   -2.0870 O   0  0  0  0  0  0  0  0  0  0  0  0
   -8.8890   -9.5100   -0.6990 C   0  0  2  0  0  0  0  0  0  0  0  0
  -10.3540   -9.4780   -0.2190 C   0  0  1  0  0  0  0  0  0  0  0  0
  -10.7190   -9.2400    1.2450 N   0  0  1  0  0  0  0  0  0  0  0  0
  -10.7810   -7.7820    1.6000 C   0  0  2  0  0  0  0  0  0  0  0  0
  -11.7760   -7.3940    1.9350 H   0  0  0  0  0  0  0  0  0  0  0  0
  -10.4830   -7.1070    0.7730 H   0  0  0  0  0  0  0  0  0  0  0  0
  -10.2730   -7.5880    2.5390 H   0  0  0  0  0  0  0  0  0  0  0  0
  -12.1760   -9.5880    1.2670 C   0  0  1  0  0  0  0  0  0  0  0  0
  -12.6410   -9.4090    2.2600 H   0  0  0  0  0  0  0  0  0  0  0  0
  -12.7540   -8.9630    0.5430 H   0  0  0  0  0  0  0  0  0  0  0  0
  -12.3640  -10.6260    0.9650 H   0  0  0  0  0  0  0  0  0  0  0  0
  -10.0300  -10.0550    2.3710 C   0  0  2  0  0  0  0  0  0  0  0  0
   -8.5390  -10.6160    2.4320 C   0  0  1  0  0  0  0  0  0  0  0  0
   -8.0930  -11.4790    3.6990 C   0  0  2  0  0  0  0  0  0  0  0  0
   -8.0320  -10.9600    5.4760 S   0  0  2  0  0  6  0  0  0  0  0  0
   -6.5320  -10.1910    5.8060 O   0  0  0  0  0  0  0  0  0  0  0  0
   -8.0840  -12.3990    6.4100 O   0  0  0  0  0  0  0  0  0  0  0  0
   -9.3830  -10.0100    5.9520 O   0  0  0  0  0  1  0  0  0  0  0  0
   -7.0680  -11.8510    3.4870 H   0  0  0  0  0  0  0  0  0  0  0  0
   -8.6930  -12.3560    3.8100 H   0  0  0  0  0  0  0  0  0  0  0  0
   -8.4040  -11.3030    1.5860 H   0  0  0  0  0  0  0  0  0  0  0  0
   -7.7570   -9.8960    2.3060 H   0  0  0  0  0  0  0  0  0  0  0  0
  -10.4790  -10.9910    2.3830 H   0  0  0  0  0  0  0  0  0  0  0  0
  -10.2960   -9.6160    3.3500 H   0  0  0  0  0  0  0  0  0  0  0  0
  -10.8380   -8.6780   -0.8290 H   0  0  0  0  0  0  0  0  0  0  0  0
  -10.8120  -10.3990   -0.5990 H   0  0  0  0  0  0  0  0  0  0  0  0
   -8.5520   -8.5720   -0.4510 H   0  0  0  0  0  0  0  0  0  0  0  0
   -8.2540  -10.2600   -0.2240 H   0  0  0  0  0  0  0  0  0  0  0  0
   -5.0360   -8.9030   -1.7960 H   0  0  0  0  0  0  0  0  0  0  0  0
   -4.3130  -10.0240   -2.7430 H   0  0  0  0  0  0  0  0  0  0  0  0
   -6.3950  -11.4110   -1.9260 C   0  0  2  0  0  0  0  0  0  0  0  0
   -7.3170  -12.7570   -1.7590 C   0  0  2  0  0  0  0  0  0  0  0  0
   -7.5830  -13.4070   -3.1270 C   0  0  1  0  0  0  0  0  0  0  0  0
   -8.0820  -14.3910   -3.0060 H   0  0  0  0  0  0  0  0  0  0  0  0
   -8.2960  -12.8020   -3.7140 H   0  0  0  0  0  0  0  0  0  0  0  0
   -6.6420  -13.5500   -3.6990 H   0  0  0  0  0  0  0  0  0  0  0  0
   -8.7780  -12.6130   -1.0750 C   0  0  0  0  0  0  0  0  0  0  0  0
   -9.6280  -12.0510   -1.7430 O   0  0  0  0  0  0  0  0  0  0  0  0
   -9.1920  -13.1860    0.1560 O   0  0  0  0  0  0  0  0  0  0  0  0
  -10.4900  -13.0490    0.7650 C   0  0  2  0  0  0  0  0  0  0  0  0
  -10.6770  -13.6680    2.2620 C   0  0  1  0  0  0  0  0  0  0  0  0
  -11.8540  -13.2950    3.2130 N   0  0  1  0  0  0  0  0  0  0  0  0
  -11.8260  -11.9890    3.9560 C   0  0  2  0  0  0  0  0  0  0  0  0
  -10.8290  -11.7650    4.3890 H   0  0  0  0  0  0  0  0  0  0  0  0
  -12.5490  -11.9610    4.8090 H   0  0  0  0  0  0  0  0  0  0  0  0
  -12.2250  -11.1410    3.3910 H   0  0  0  0  0  0  0  0  0  0  0  0
  -13.1120  -13.2820    2.4330 C   0  0  1  0  0  0  0  0  0  0  0  0
  -13.9890  -13.0220    3.0770 H   0  0  0  0  0  0  0  0  0  0  0  0
  -13.0830  -12.5040    1.6510 H   0  0  0  0  0  0  0  0  0  0  0  0
  -13.2970  -14.2580    1.9480 H   0  0  0  0  0  0  0  0  0  0  0  0
  -12.0060  -14.3280    4.3090 C   0  0  2  0  0  0  0  0  0  0  0  0
  -11.0700  -14.1850    5.5720 C   0  0  1  0  0  0  0  0  0  0  0  0
  -11.5520  -15.1020    6.7080 C   0  0  2  0  0  0  0  0  0  0  0  0
  -10.7340  -14.7330    8.3010 S   0  0  2  0  0  6  0  0  0  0  0  0
   -9.0300  -14.7170    8.1040 O   0  0  0  0  0  0  0  0  0  0  0  0
  -11.1960  -15.9490    9.4230 O   0  0  0  0  0  0  0  0  0  0  0  0
  -11.2870  -13.2030    8.8550 O   0  0  0  0  0  1  0  0  0  0  0  0
  -11.4170  -16.1670    6.4370 H   0  0  0  0  0  0  0  0  0  0  0  0
  -12.6330  -14.9160    6.8920 H   0  0  0  0  0  0  0  0  0  0  0  0
  -10.0070  -14.3740    5.3180 H   0  0  0  0  0  0  0  0  0  0  0  0
  -11.1320  -13.1730    6.0210 H   0  0  0  0  0  0  0  0  0  0  0  0
  -11.9440  -15.3550    3.9010 H   0  0  0  0  0  0  0  0  0  0  0  0
  -13.0350  -14.2290    4.7360 H   0  0  0  0  0  0  0  0  0  0  0  0
  -10.7240  -14.7590    2.0680 H   0  0  0  0  0  0  0  0  0  0  0  0
   -9.7470  -13.6030    2.7920 H   0  0  0  0  0  0  0  0  0  0  0  0
  -11.2700  -13.4720    0.1020 H   0  0  0  0  0  0  0  0  0  0  0  0
  -10.7080  -12.0060    0.7440 H   0  0  0  0  0  0  0  0  0  0  0  0
   -6.2740  -10.9720   -0.9130 H   0  0  0  0  0  0  0  0  0  0  0  0
   -5.4060  -11.8540   -2.1500 H   0  0  0  0  0  0  0  0  0  0  0  0
    6.6650    1.7100    1.4090 C   0  0  0  0  0  0  0  0  0  0  0  0
    7.2680    2.0580    2.5700 C   0  0  0  0  0  0  0  0  0  0  0  0
    8.1550    3.2880    2.5910 C   0  0  1  0  0  0  0  0  0  0  0  0
    8.2300    3.7850    1.6000 H   0  0  0  0  0  0  0  0  0  0  0  0
    7.7440    4.0300    3.3090 H   0  0  0  0  0  0  0  0  0  0  0  0
    9.1810    3.0110    2.9130 H   0  0  0  0  0  0  0  0  0  0  0  0
    7.0920    1.3130    3.8530 C   0  0  0  0  0  0  0  0  0  0  0  0
    7.6120    1.7640    4.8660 O   0  0  0  0  0  0  0  0  0  0  0  0
    6.3800    0.1520    3.9200 O   0  0  0  0  0  0  0  0  0  0  0  0
    6.0550   -0.4420    5.1240 C   0  0  1  0  0  0  0  0  0  0  0  0
    5.2650   -1.7610    4.9720 C   0  0  1  0  0  0  0  0  0  0  0  0
    5.9700   -2.9790    4.4230 N   0  0  2  0  0  0  0  0  0  0  0  0
    5.9980   -2.9600    2.9430 C   0  0  2  0  0  0  0  0  0  0  0  0
    6.3660   -3.9280    2.5370 H   0  0  0  0  0  0  0  0  0  0  0  0
    6.6470   -2.1590    2.5640 H   0  0  0  0  0  0  0  0  0  0  0  0
    4.9800   -2.8020    2.5210 H   0  0  0  0  0  0  0  0  0  0  0  0
    5.1230   -4.1420    4.8050 C   0  0  2  0  0  0  0  0  0  0  0  0
    5.0610   -4.2520    5.9120 H   0  0  0  0  0  0  0  0  0  0  0  0
    5.5330   -5.0970    4.4050 H   0  0  0  0  0  0  0  0  0  0  0  0
    4.0840   -4.0350    4.4150 H   0  0  0  0  0  0  0  0  0  0  0  0
    7.3310   -3.1920    5.0410 C   0  0  1  0  0  0  0  0  0  0  0  0
    8.5380   -2.4480    4.3860 C   0  0  2  0  0  0  0  0  0  0  0  0
    9.2310   -3.1730    3.2120 C   0  0  1  0  0  0  0  0  0  0  0  0
   10.2920   -4.5580    3.7640 S   0  0  1  0  0  6  0  0  0  0  0  0
    9.4030   -5.7580    4.6090 O   0  0  0  0  0  0  0  0  0  0  0  0
   11.0100   -5.2510    2.3680 O   0  0  0  0  0  0  0  0  0  0  0  0
   11.5110   -3.8970    4.7770 O   0  0  0  0  0  1  0  0  0  0  0  0
    8.5440   -3.5060    2.4150 H   0  0  0  0  0  0  0  0  0  0  0  0
    9.9300   -2.4500    2.7410 H   0  0  0  0  0  0  0  0  0  0  0  0
    9.3250   -2.2960    5.1540 H   0  0  0  0  0  0  0  0  0  0  0  0
    8.2370   -1.4410    4.0570 H   0  0  0  0  0  0  0  0  0  0  0  0
    7.2720   -2.8700    6.1040 H   0  0  0  0  0  0  0  0  0  0  0  0
    7.5940   -4.2650    5.0980 H   0  0  0  0  0  0  0  0  0  0  0  0
    4.9460   -1.9770    6.0180 H   0  0  0  0  0  0  0  0  0  0  0  0
    4.3300   -1.5560    4.4010 H   0  0  0  0  0  0  0  0  0  0  0  0
    6.9590   -0.5990    5.7470 H   0  0  0  0  0  0  0  0  0  0  0  0
    5.4060    0.2700    5.6820 H   0  0  0  0  0  0  0  0  0  0  0  0
    6.8580    2.3310    0.5400 H   0  0  0  0  0  0  0  0  0  0  0  0
   -6.5450  -13.8350   -0.9590 C   0  0  0  0  0  0  0  0  0  0  0  0
   -5.4380  -14.6550   -1.1660 C   0  0  0  0  0  0  0  0  0  0  0  0
   -5.2980  -15.7450   -0.1060 C   0  0  1  0  0  0  0  0  0  0  0  0
   -6.0580  -15.7330    0.7010 H   0  0  0  0  0  0  0  0  0  0  0  0
   -5.4030  -16.7380   -0.5960 H   0  0  0  0  0  0  0  0  0  0  0  0
   -4.2990  -15.6750    0.3690 H   0  0  0  0  0  0  0  0  0  0  0  0
   -4.3330  -14.8350   -2.2300 C   0  0  0  0  0  0  0  0  0  0  0  0
   -3.8620  -15.9670   -2.2880 O   0  0  0  0  0  0  0  0  0  0  0  0
   -3.6770  -13.8750   -2.9680 O   0  0  0  0  0  0  0  0  0  0  0  0
   -2.3060  -14.0940   -3.2850 C   0  0  1  0  0  0  0  0  0  0  0  0
   -1.5930  -13.2240   -4.3670 C   0  0  1  0  0  0  0  0  0  0  0  0
   -1.6250  -11.7490   -4.2230 N   0  0  2  0  0  0  0  0  0  0  0  0
   -3.0150  -11.3530   -4.4170 C   0  0  1  0  0  0  0  0  0  0  0  0
   -3.0470  -10.2910   -4.3300 H   0  0  0  0  0  0  0  0  0  0  0  0
   -3.3980  -11.6260   -5.4280 H   0  0  0  0  0  0  0  0  0  0  0  0
   -3.6920  -11.7810   -3.6910 H   0  0  0  0  0  0  0  0  0  0  0  0
   -0.9050  -11.1190   -5.3940 C   0  0  1  0  0  0  0  0  0  0  0  0
   -0.6180  -11.8390   -6.1890 H   0  0  0  0  0  0  0  0  0  0  0  0
   -1.4880  -10.3160   -5.9150 H   0  0  0  0  0  0  0  0  0  0  0  0
   -0.0340  -10.5340   -5.1080 H   0  0  0  0  0  0  0  0  0  0  0  0
   -1.0240  -11.2260   -2.9260 C   0  0  1  0  0  0  0  0  0  0  0  0
   -1.8180  -11.4200   -1.5900 C   0  0  2  0  0  0  0  0  0  0  0  0
   -1.6690  -10.3020   -0.5230 C   0  0  1  0  0  0  0  0  0  0  0  0
   -0.0460  -10.0950    0.2750 S   0  0  1  0  0  6  0  0  0  0  0  0
    1.0370   -9.2590   -0.7580 O   0  0  0  0  0  0  0  0  0  0  0  0
   -0.3290   -9.1570    1.6880 O   0  0  0  0  0  0  0  0  0  0  0  0
    0.5790  -11.6310    0.7070 O   0  0  0  0  0  1  0  0  0  0  0  0
   -1.9700   -9.3180   -0.9170 H   0  0  0  0  0  0  0  0  0  0  0  0
   -2.3840  -10.5230    0.2980 H   0  0  0  0  0  0  0  0  0  0  0  0
   -1.5740  -12.3870   -1.1190 H   0  0  0  0  0  0  0  0  0  0  0  0
   -2.8960  -11.4060   -1.7880 H   0  0  0  0  0  0  0  0  0  0  0  0
    0.0200  -11.5710   -2.7850 H   0  0  0  0  0  0  0  0  0  0  0  0
   -0.9120  -10.1570   -3.0310 H   0  0  0  0  0  0  0  0  0  0  0  0
   -0.5280  -13.5500   -4.4080 H   0  0  0  0  0  0  0  0  0  0  0  0
   -2.0370  -13.5020   -5.3530 H   0  0  0  0  0  0  0  0  0  0  0  0
   -1.7130  -14.0730   -2.3560 H   0  0  0  0  0  0  0  0  0  0  0  0
   -2.1780  -15.1200   -3.6910 H   0  0  0  0  0  0  0  0  0  0  0  0
   -7.0750  -14.0700   -0.0490 H   0  0  0  0  0  0  0  0  0  0  0  0
  1  2  1  0
  1 38  1  1
  1 39  1  0
  1296  1  0
  2  3  1  0
  2  7  1  6
  2 40  1  0
  3  4  1  6
  3  5  1  0
  3  6  1  0
  7  8  2  0
  7  9  1  0
  9 10  1  0
 10 11  1  0
 10 36  1  6
 10 37  1  0
 12 11  1  6
 11 34  1  6
 11 35  1  0
 12 13  1  0
 12 17  1  0
 12 21  1  0
 13 14  1  1
 13 15  1  0
 13 16  1  0
 17 18  1  1
 17 19  1  0
 17 20  1  0
 21 22  1  0
 21 32  1  1
 21 33  1  0
 22 23  1  0
 22 30  1  6
 22 31  1  0
 23 24  1  0
 23 28  1  1
 23 29  1  0
 24 25  2  0
 24 26  2  0
 24 27  1  6
 40 41  1  0
 40 77  1  1
 40 78  1  0
 41 42  1  0
 41 46  1  6
 41 79  1  0
 42 43  1  6
 42 44  1  0
 42 45  1  0
 46 47  2  0
 46 48  1  0
 48 49  1  0
 49 50  1  0
 49 75  1  1
 49 76  1  0
 51 50  1  1
 50 73  1  6
 50 74  1  0
 51 52  1  0
 51 56  1  0
 51 60  1  0
 52 53  1  6
 52 54  1  0
 52 55  1  0
 56 57  1  1
 56 58  1  0
 56 59  1  0
 60 61  1  0
 60 71  1  6
 60 72  1  0
 61 62  1  0
 61 69  1  1
 61 70  1  0
 62 63  1  0
 62 67  1  6
 62 68  1  0
 63 64  2  0
 63 65  2  0
 63 66  1  6
 79 80  1  0
 79116  1  1
 79117  1  0
 80 81  1  0
 80 85  1  6
 80118  1  0
 81 82  1  6
 81 83  1  0
 81 84  1  0
 85 86  2  0
 85 87  1  0
 87 88  1  0
 88 89  1  0
 88114  1  6
 88115  1  0
 90 89  1  1
 89112  1  1
 89113  1  0
 90 91  1  0
 90 95  1  0
 90 99  1  0
 91 92  1  1
 91 93  1  0
 91 94  1  0
 95 96  1  6
 95 97  1  0
 95 98  1  0
 99100  1  0
 99110  1  6
 99111  1  0
100101  1  0
100108  1  6
100109  1  0
101102  1  0
101106  1  1
101107  1  0
102103  2  0
102104  2  0
102105  1  1
118119  1  0
118155  1  1
118156  1  0
119120  1  0
119124  1  1
119157  1  0
120121  1  1
120122  1  0
120123  1  0
124125  2  0
124126  1  0
126127  1  0
127128  1  0
127153  1  6
127154  1  0
129128  1  6
128151  1  1
128152  1  0
129130  1  0
129134  1  0
129138  1  0
130131  1  6
130132  1  0
130133  1  0
134135  1  1
134136  1  0
134137  1  0
138139  1  0
138149  1  6
138150  1  0
139140  1  0
139147  1  6
139148  1  0
140141  1  0
140145  1  1
140146  1  0
141142  2  0
141143  2  0
141144  1  6
157158  1  0
157177  1  6
157178  1  0
158159  1  0
158163  1  6
158179  1  0
159160  1  6
159161  1  0
159162  1  0
163164  2  0
163165  1  0
165166  1  0
166167  1  0
166175  1  0
167168  2  0
167169  1  0
169170  1  6
169171  1  0
169172  1  0
172173  1  1
172174  1  0
172175  1  0
175176  2  0
179180  1  0
179216  1  1
179217  1  0
180181  1  0
180185  1  6
180218  1  0
181182  1  6
181183  1  0
181184  1  0
185186  2  0
185187  1  0
187188  1  0
188189  1  0
188214  1  6
188215  1  0
190189  1  6
189212  1  6
189213  1  0
190191  1  0
190195  1  0
190199  1  0
191192  1  1
191193  1  0
191194  1  0
195196  1  1
195197  1  0
195198  1  0
199200  1  0
199210  1  6
199211  1  0
200201  1  0
200208  1  1
200209  1  0
201202  1  0
201206  1  1
201207  1  0
202203  2  0
202204  2  0
202205  1  6
218219  1  0
218255  1  1
218256  1  0
219220  1  0
219224  1  1
219257  1  0
220221  1  6
220222  1  0
220223  1  0
224225  2  0
224226  1  0
226227  1  0
227228  1  0
227253  1  1
227254  1  0
229228  1  6
228251  1  6
228252  1  0
229230  1  0
229234  1  0
229238  1  0
230231  1  1
230232  1  0
230233  1  0
234235  1  1
234236  1  0
234237  1  0
238239  1  0
238249  1  1
238250  1  0
239240  1  0
239247  1  6
239248  1  0
240241  1  0
240245  1  6
240246  1  0
241242  2  0
241243  2  0
241244  1  1
257258  1  0
257294  1  1
257295  1  0
258259  1  0
258263  1  1
258334  1  0
259260  1  1
259261  1  0
259262  1  0
263264  2  0
263265  1  0
265266  1  0
266267  1  0
266292  1  6
266293  1  0
268267  1  6
267290  1  6
267291  1  0
268269  1  0
268273  1  0
268277  1  0
269270  1  1
269271  1  0
269272  1  0
273274  1  1
273275  1  0
273276  1  0
277278  1  0
277288  1  6
277289  1  0
278279  1  0
278286  1  6
278287  1  0
279280  1  0
279284  1  6
279285  1  0
280281  2  0
280282  2  0
280283  1  1
296297  2  3
296333  1  0
297298  1  0
297302  1  0
298299  1  6
298300  1  0
298301  1  0
302303  2  0
302304  1  0
304305  1  0
305306  1  0
305331  1  1
305332  1  0
307306  1  1
306329  1  1
306330  1  0
307308  1  0
307312  1  0
307316  1  0
308309  1  6
308310  1  0
308311  1  0
312313  1  1
312314  1  0
312315  1  0
316317  1  0
316327  1  1
316328  1  0
317318  1  0
317325  1  1
317326  1  0
318319  1  0
318323  1  6
318324  1  0
319320  2  0
319321  2  0
319322  1  1
334335  2  3
334371  1  0
335336  1  0
335340  1  0
336337  1  1
336338  1  0
336339  1  0
340341  2  0
340342  1  0
342343  1  0
343344  1  0
343369  1  1
343370  1  0
345344  1  6
344367  1  6
344368  1  0
345346  1  0
345350  1  0
345354  1  0
346347  1  6
346348  1  0
346349  1  0
350351  1  6
350352  1  0
350353  1  0
354355  1  0
354365  1  1
354366  1  0
355356  1  0
355363  1  1
355364  1  0
356357  1  0
356361  1  6
356362  1  0
357358  2  0
357359  2  0
357360  1  1
M  CHG  8  12   1  51   1  90   1 129   1 190   1 229   1 268   1 307   1
M  RAD  8  27   2  66   2 105   2 144   2 205   2 244   2 283   2 322   2
M  CHG  1 345   1
M  RAD  1 360   2
M  END
