
     RDKit          3D

 88 89  0  0  0  0  0  0  0  0999 V2000
   -3.0370    0.0160    1.2570 C   0  0  2  0  0  0  0  0  0  0  0  0
   -2.3970   -0.3410   -0.0880 C   0  0  1  0  0  0  0  0  0  0  0  0
   -3.2750    0.1220   -1.2540 C   0  0  2  0  0  0  0  0  0  0  0  0
   -4.2720   -0.3640   -1.1980 H   0  0  0  0  0  0  0  0  0  0  0  0
   -2.8050   -0.1610   -2.2210 H   0  0  0  0  0  0  0  0  0  0  0  0
   -3.4130    1.2250   -1.2310 H   0  0  0  0  0  0  0  0  0  0  0  0
   -1.0220    0.2540   -0.1950 C   0  0  0  0  0  0  0  0  0  0  0  0
   -0.8650    1.5030   -0.1090 O   0  0  0  0  0  0  0  0  0  0  0  0
    0.0690   -0.5830   -0.4480 O   0  0  0  0  0  0  0  0  0  0  0  0
    1.3790   -0.1590   -0.3350 N   0  0  0  0  0  0  0  0  0  0  0  0
    1.9390    0.5620    0.7520 C   0  0  0  0  0  0  0  0  0  0  0  0
    1.2460    1.1340    1.6340 O   0  0  0  0  0  0  0  0  0  0  0  0
    3.4300    0.5000    0.7880 C   0  0  1  0  0  0  0  0  0  0  0  0
    3.8580    1.5130    0.6270 H   0  0  0  0  0  0  0  0  0  0  0  0
    3.7750    0.0830    1.7580 H   0  0  0  0  0  0  0  0  0  0  0  0
    3.7890   -0.4440   -0.3770 C   0  0  2  0  0  0  0  0  0  0  0  0
    4.3080   -1.3540   -0.0050 H   0  0  0  0  0  0  0  0  0  0  0  0
    4.4140    0.0760   -1.1340 H   0  0  0  0  0  0  0  0  0  0  0  0
    2.4660   -0.8080   -0.9620 C   0  0  0  0  0  0  0  0  0  0  0  0
    2.3180   -1.6240   -1.9100 O   0  0  0  0  0  0  0  0  0  0  0  0
   -2.3930   -0.3370    2.0910 H   0  0  0  0  0  0  0  0  0  0  0  0
   -4.0280   -0.4780    1.3510 H   0  0  0  0  0  0  0  0  0  0  0  0
   -3.1720    1.0860    1.3480 C   0  0  0  0  0  0  0  0  0  0  0  0
   -3.0940    1.7040    2.5310 C   0  0  0  0  0  0  0  0  0  0  0  0
   -3.2580    3.1970    2.6070 C   0  0  1  0  0  0  0  0  0  0  0  0
   -3.7990    3.5950    1.7210 H   0  0  0  0  0  0  0  0  0  0  0  0
   -3.8420    3.4740    3.5100 H   0  0  0  0  0  0  0  0  0  0  0  0
   -2.2580    3.6760    2.6610 H   0  0  0  0  0  0  0  0  0  0  0  0
   -2.7720    0.9410    3.7580 C   0  0  0  0  0  0  0  0  0  0  0  0
   -2.6540    1.5440    4.8600 O   0  0  0  0  0  0  0  0  0  0  0  0
   -2.5900   -0.4450    3.6950 O   0  0  0  0  0  0  0  0  0  0  0  0
   -2.2630   -1.2330    4.8340 C   0  0  1  0  0  0  0  0  0  0  0  0
   -2.0750   -2.7110    4.4520 C   0  0  1  0  0  0  0  0  0  0  0  0
   -0.8980   -3.0520    3.5820 N   0  0  2  0  0  0  0  0  0  0  0  0
   -1.1050   -2.5960    2.1820 C   0  0  2  0  0  0  0  0  0  0  0  0
   -0.2930   -2.9650    1.5180 H   0  0  0  0  0  0  0  0  0  0  0  0
   -1.1330   -1.4970    2.0820 H   0  0  0  0  0  0  0  0  0  0  0  0
   -2.0670   -2.9790    1.7750 H   0  0  0  0  0  0  0  0  0  0  0  0
   -0.8510   -4.5400    3.5280 C   0  0  2  0  0  0  0  0  0  0  0  0
   -0.6530   -4.9750    4.5340 H   0  0  0  0  0  0  0  0  0  0  0  0
   -0.0460   -4.9010    2.8470 H   0  0  0  0  0  0  0  0  0  0  0  0
   -1.8110   -4.9670    3.1570 H   0  0  0  0  0  0  0  0  0  0  0  0
    0.4100   -2.5930    4.1670 C   0  0  1  0  0  0  0  0  0  0  0  0
    0.8530   -1.1320    3.8570 C   0  0  2  0  0  0  0  0  0  0  0  0
    1.8820   -1.0300    2.7170 C   0  0  1  0  0  0  0  0  0  0  0  0
    3.5570   -1.2990    3.2890 S   0  0  1  0  0  6  0  0  0  0  0  0
    3.7090   -2.6870    3.8430 O   0  0  0  0  0  0  0  0  0  0  0  0
    4.5030   -1.1240    2.1350 O   0  0  0  0  0  0  0  0  0  0  0  0
    3.9340   -0.1790    4.4830 O   0  0  0  0  0  1  0  0  0  0  0  0
    1.6550   -1.7480    1.9030 H   0  0  0  0  0  0  0  0  0  0  0  0
    1.8370   -0.0080    2.2840 H   0  0  0  0  0  0  0  0  0  0  0  0
    1.2940   -0.6900    4.7770 H   0  0  0  0  0  0  0  0  0  0  0  0
    0.0010   -0.4750    3.6120 H   0  0  0  0  0  0  0  0  0  0  0  0
    0.3780   -2.7100    5.2740 H   0  0  0  0  0  0  0  0  0  0  0  0
    1.2380   -3.2660    3.8490 H   0  0  0  0  0  0  0  0  0  0  0  0
   -2.0030   -3.2670    5.4160 H   0  0  0  0  0  0  0  0  0  0  0  0
   -3.0210   -3.0550    3.9740 H   0  0  0  0  0  0  0  0  0  0  0  0
   -1.3710   -0.8340    5.3590 H   0  0  0  0  0  0  0  0  0  0  0  0
   -3.1070   -1.1700    5.5550 H   0  0  0  0  0  0  0  0  0  0  0  0
   -3.3750    1.6420    0.4410 H   0  0  0  0  0  0  0  0  0  0  0  0
   -2.3110   -1.4200   -0.1410 C   0  0  0  0  0  0  0  0  0  0  0  0
   -2.3220   -2.1660    0.9690 C   0  0  0  0  0  0  0  0  0  0  0  0
   -2.4920   -1.5060    2.3110 C   0  0  1  0  0  0  0  0  0  0  0  0
   -1.8510   -2.0050    3.0680 H   0  0  0  0  0  0  0  0  0  0  0  0
   -2.2020   -0.4340    2.2790 H   0  0  0  0  0  0  0  0  0  0  0  0
   -3.5530   -1.5820    2.6280 H   0  0  0  0  0  0  0  0  0  0  0  0
   -2.2480   -3.6410    0.8830 C   0  0  0  0  0  0  0  0  0  0  0  0
   -2.3370   -4.3350    1.9340 O   0  0  0  0  0  0  0  0  0  0  0  0
   -2.0750   -4.2660   -0.3590 O   0  0  0  0  0  0  0  0  0  0  0  0
   -2.0510   -5.6810   -0.5330 C   0  0  2  0  0  0  0  0  0  0  0  0
   -3.4620   -6.2560   -0.4490 C   0  0  2  0  0  0  0  0  0  0  0  0
   -3.4170   -7.6610   -0.6890 O   0  0  0  0  0  0  0  0  0  0  0  0
   -4.5350   -8.5080   -0.6910 C   0  0  0  0  0  0  0  0  0  0  0  0
   -5.7880   -8.0630   -0.4620 C   0  0  0  0  0  0  0  0  0  0  0  0
   -5.9890   -7.0190   -0.2640 H   0  0  0  0  0  0  0  0  0  0  0  0
   -6.9270   -9.0050   -0.4760 C   0  0  0  0  0  0  0  0  0  0  0  0
   -7.9300   -8.6400   -0.2920 H   0  0  0  0  0  0  0  0  0  0  0  0
   -6.7210  -10.3050   -0.7180 C   0  0  0  0  0  0  0  0  0  0  0  0
   -7.5540  -10.9950   -0.7290 H   0  0  0  0  0  0  0  0  0  0  0  0
   -5.3530  -10.8000   -0.9690 C   0  0  0  0  0  0  0  0  0  0  0  0
   -5.1880  -11.8520   -1.1640 H   0  0  0  0  0  0  0  0  0  0  0  0
   -4.3190   -9.9490   -0.9570 C   0  0  0  0  0  0  0  0  0  0  0  0
   -3.3170  -10.3160   -1.1420 H   0  0  0  0  0  0  0  0  0  0  0  0
   -4.1010   -5.7660   -1.2160 H   0  0  0  0  0  0  0  0  0  0  0  0
   -3.8840   -6.0650    0.5610 H   0  0  0  0  0  0  0  0  0  0  0  0
   -1.3940   -6.1530    0.2300 H   0  0  0  0  0  0  0  0  0  0  0  0
   -1.6310   -5.9060   -1.5360 H   0  0  0  0  0  0  0  0  0  0  0  0
   -2.2190   -1.8670   -1.1220 H   0  0  0  0  0  0  0  0  0  0  0  0
  1  2  1  0
  1 21  1  1
  1 22  1  0
  1 23  1  0
  2  3  1  0
  2  7  1  6
  2 61  1  0
  3  4  1  1
  3  5  1  0
  3  6  1  0
  7  8  2  0
  7  9  1  0
  9 10  1  0
 10 11  1  0
 10 19  1  0
 11 12  2  0
 11 13  1  0
 13 14  1  6
 13 15  1  0
 13 16  1  0
 16 17  1  1
 16 18  1  0
 16 19  1  0
 19 20  2  0
 23 24  2  3
 23 60  1  0
 24 25  1  0
 24 29  1  0
 25 26  1  6
 25 27  1  0
 25 28  1  0
 29 30  2  0
 29 31  1  0
 31 32  1  0
 32 33  1  0
 32 58  1  1
 32 59  1  0
 34 33  1  1
 33 56  1  1
 33 57  1  0
 34 35  1  0
 34 39  1  0
 34 43  1  0
 35 36  1  6
 35 37  1  0
 35 38  1  0
 39 40  1  1
 39 41  1  0
 39 42  1  0
 43 44  1  0
 43 54  1  1
 43 55  1  0
 44 45  1  0
 44 52  1  1
 44 53  1  0
 45 46  1  0
 45 50  1  6
 45 51  1  0
 46 47  2  0
 46 48  2  0
 46 49  1  1
 61 62  2  3
 61 88  1  0
 62 63  1  0
 62 67  1  0
 63 64  1  1
 63 65  1  0
 63 66  1  0
 67 68  2  0
 67 69  1  0
 69 70  1  0
 70 71  1  0
 70 86  1  1
 70 87  1  0
 71 72  1  0
 71 84  1  6
 71 85  1  0
 72 73  1  0
 73 74  2  0
 73 82  1  0
 74 75  1  0
 74 76  1  0
 76 77  1  0
 76 78  2  0
 78 79  1  0
 78 80  1  0
 80 81  1  0
 80 82  2  0
 82 83  1  0
M  CHG  1  34   1
M  RAD  1  49   2
M  END
