
     RDKit          3D

 30 30  0  0  0  0  0  0  0  0999 V2000
    4.4925   -0.9304   -0.1572 C   0  0  0  0  0  0  0  0  0  0  0  0
    3.0766   -1.0187   -0.6633 C   0  0  0  0  0  0  0  0  0  0  0  0
    2.7990   -1.6256   -1.6895 O   0  0  0  0  0  0  0  0  0  0  0  0
    2.1751   -0.3275    0.1180 N   0  0  0  0  0  0  0  0  0  0  0  0
    0.7636   -0.1735   -0.2839 C   0  0  2  0  0  0  0  0  0  0  0  0
    0.1818    1.0600    0.4298 C   0  0  1  0  0  0  0  0  0  0  0  0
    0.9198    2.2406    0.0749 O   0  0  0  0  0  0  0  0  0  0  0  0
   -1.2965    1.2411    0.0841 C   0  0  2  0  0  0  0  0  0  0  0  0
   -1.7851    2.3971    0.7734 O   0  0  0  0  0  0  0  0  0  0  0  0
   -2.0474   -0.0309    0.4942 C   0  0  1  0  0  0  0  0  0  0  0  0
   -3.5560    0.0555    0.2172 C   0  0  0  0  0  0  0  0  0  0  0  0
   -3.8193    0.6807   -1.0367 O   0  0  0  0  0  0  0  0  0  0  0  0
   -1.5124   -1.1571   -0.2116 O   0  0  0  0  0  0  0  0  0  0  0  0
   -0.1326   -1.3981    0.0656 C   0  0  1  0  0  0  0  0  0  0  0  0
    0.2239   -2.5357   -0.6940 O   0  0  0  0  0  0  0  0  0  0  0  0
    5.0390   -0.1903   -0.7474 H   0  0  0  0  0  0  0  0  0  0  0  0
    4.5227   -0.6427    0.8977 H   0  0  0  0  0  0  0  0  0  0  0  0
    4.9707   -1.9089   -0.2568 H   0  0  0  0  0  0  0  0  0  0  0  0
    2.5649    0.4787    0.5945 H   0  0  0  0  0  0  0  0  0  0  0  0
    0.7576   -0.0068   -1.3691 H   0  0  0  0  0  0  0  0  0  0  0  0
    0.2981    0.9596    1.5172 H   0  0  0  0  0  0  0  0  0  0  0  0
    0.3517    2.9887    0.3500 H   0  0  0  0  0  0  0  0  0  0  0  0
   -1.3778    1.4358   -0.9928 H   0  0  0  0  0  0  0  0  0  0  0  0
   -2.6198    2.6365    0.3234 H   0  0  0  0  0  0  0  0  0  0  0  0
   -1.9333   -0.2205    1.5700 H   0  0  0  0  0  0  0  0  0  0  0  0
   -4.0520    0.6539    0.9877 H   0  0  0  0  0  0  0  0  0  0  0  0
   -3.9998   -0.9459    0.2060 H   0  0  0  0  0  0  0  0  0  0  0  0
   -4.6616    0.3192   -1.3661 H   0  0  0  0  0  0  0  0  0  0  0  0
   -0.0177   -1.6571    1.1258 H   0  0  0  0  0  0  0  0  0  0  0  0
   -0.3258   -3.2604   -0.3612 H   0  0  0  0  0  0  0  0  0  0  0  0
  1  2  1  0
  2  3  2  0
  2  4  1  0
  4  5  1  0
  5  6  1  0
  6  7  1  0
  6  8  1  0
  8  9  1  0
  8 10  1  0
 10 11  1  0
 11 12  1  0
 10 13  1  0
 13 14  1  0
 14 15  1  0
 14  5  1  0
  1 16  1  0
  1 17  1  0
  1 18  1  0
  4 19  1  0
  5 20  1  6
  6 21  1  1
  7 22  1  0
  8 23  1  6
  9 24  1  0
 10 25  1  1
 11 26  1  0
 11 27  1  0
 12 28  1  0
 14 29  1  1
 15 30  1  0
M  END
