
     RDKit          3D

371371  0  0  0  0  0  0  0  0999 V2000
    5.6460    0.5520    1.4140 C   0  0  1  0  0  0  0  0  0  0  0  0
    5.0400    0.3530   -0.0140 C   0  0  2  0  0  0  0  0  0  0  0  0
    6.2640    0.0360   -0.9390 C   0  0  1  0  0  0  0  0  0  0  0  0
    6.0650    0.0510   -2.0170 H   0  0  0  0  0  0  0  0  0  0  0  0
    7.0600    0.8030   -0.8570 H   0  0  0  0  0  0  0  0  0  0  0  0
    6.7250   -0.9370   -0.6610 H   0  0  0  0  0  0  0  0  0  0  0  0
    4.3970    1.6650   -0.4500 C   0  0  0  0  0  0  0  0  0  0  0  0
    4.0290    1.7980   -1.6070 O   0  0  0  0  0  0  0  0  0  0  0  0
    4.2520    2.6900    0.4450 O   0  0  0  0  0  0  0  0  0  0  0  0
    3.6740    3.9180    0.1820 C   0  0  2  0  0  0  0  0  0  0  0  0
    2.3680    3.9960    0.9700 C   0  0  1  0  0  0  0  0  0  0  0  0
    1.4370    5.1250    0.6370 N   0  0  1  0  0  0  0  0  0  0  0  0
    1.9450    6.3850    1.2230 C   0  0  2  0  0  0  0  0  0  0  0  0
    2.0940    6.2840    2.3170 H   0  0  0  0  0  0  0  0  0  0  0  0
    1.2370    7.2240    1.0320 H   0  0  0  0  0  0  0  0  0  0  0  0
    2.9280    6.6630    0.7830 H   0  0  0  0  0  0  0  0  0  0  0  0
    1.3130    5.3630   -0.8330 C   0  0  1  0  0  0  0  0  0  0  0  0
    0.5190    6.1070   -1.0600 H   0  0  0  0  0  0  0  0  0  0  0  0
    2.2520    5.7670   -1.2730 H   0  0  0  0  0  0  0  0  0  0  0  0
    1.0900    4.4430   -1.3900 H   0  0  0  0  0  0  0  0  0  0  0  0
    0.0690    4.7750    1.1660 C   0  0  2  0  0  0  0  0  0  0  0  0
   -0.3720    5.2520    2.5430 C   0  0  1  0  0  0  0  0  0  0  0  0
   -1.8680    5.0370    2.7480 C   0  0  2  0  0  0  0  0  0  0  0  0
   -3.0450    6.0790    1.8460 S   0  0  2  0  0  6  0  0  0  0  0  0
   -3.5280    7.3300    2.9150 O   0  0  0  0  0  0  0  0  0  0  0  0
   -4.4070    5.0990    1.4670 O   0  0  0  0  0  0  0  0  0  0  0  0
   -2.3460    6.6940    0.4080 O   0  0  0  0  0  1  0  0  0  0  0  0
   -2.0360    5.2000    3.8190 H   0  0  0  0  0  0  0  0  0  0  0  0
   -2.1480    4.0390    2.4330 H   0  0  0  0  0  0  0  0  0  0  0  0
    0.1740    4.6080    3.2760 H   0  0  0  0  0  0  0  0  0  0  0  0
   -0.1490    6.3070    2.7630 H   0  0  0  0  0  0  0  0  0  0  0  0
    0.0420    3.6980    1.3790 H   0  0  0  0  0  0  0  0  0  0  0  0
   -0.6230    4.2470    0.5410 H   0  0  0  0  0  0  0  0  0  0  0  0
    1.8920    3.0410    0.7510 H   0  0  0  0  0  0  0  0  0  0  0  0
    2.5500    3.9550    2.0670 H   0  0  0  0  0  0  0  0  0  0  0  0
    3.4740    3.9970   -0.9030 H   0  0  0  0  0  0  0  0  0  0  0  0
    4.3550    4.7370    0.4800 H   0  0  0  0  0  0  0  0  0  0  0  0
    4.8250    0.7120    2.1440 H   0  0  0  0  0  0  0  0  0  0  0  0
    6.1940   -0.3660    1.6700 H   0  0  0  0  0  0  0  0  0  0  0  0
    3.9480   -0.8400    0.1040 C   0  0  2  0  0  0  0  0  0  0  0  0
    2.9880   -1.3740   -1.0630 C   0  0  2  0  0  0  0  0  0  0  0  0
    3.9700   -1.8260   -2.1980 C   0  0  1  0  0  0  0  0  0  0  0  0
    3.5980   -2.2610   -3.1240 H   0  0  0  0  0  0  0  0  0  0  0  0
    4.4550   -0.9460   -2.6260 H   0  0  0  0  0  0  0  0  0  0  0  0
    4.7290   -2.5340   -1.8040 H   0  0  0  0  0  0  0  0  0  0  0  0
    2.0770   -0.2360   -1.5230 C   0  0  0  0  0  0  0  0  0  0  0  0
    2.0890    0.1420   -2.6860 O   0  0  0  0  0  0  0  0  0  0  0  0
    1.3200    0.4130   -0.6010 O   0  0  0  0  0  0  0  0  0  0  0  0
    0.5470    1.5580   -0.7620 C   0  0  2  0  0  0  0  0  0  0  0  0
   -0.7150    1.3680   -1.5670 C   0  0  1  0  0  0  0  0  0  0  0  0
   -1.9140    2.2100   -1.2240 N   0  0  1  0  0  0  0  0  0  0  0  0
   -1.7670    3.5840   -1.7740 C   0  0  2  0  0  0  0  0  0  0  0  0
   -2.7140    4.1650   -1.6710 H   0  0  0  0  0  0  0  0  0  0  0  0
   -1.4700    3.5760   -2.8450 H   0  0  0  0  0  0  0  0  0  0  0  0
   -1.0070    4.1810   -1.3300 H   0  0  0  0  0  0  0  0  0  0  0  0
   -3.0310    1.6850   -2.0990 C   0  0  1  0  0  0  0  0  0  0  0  0
   -3.9750    2.2590   -1.9520 H   0  0  0  0  0  0  0  0  0  0  0  0
   -2.7800    1.7360   -3.1870 H   0  0  0  0  0  0  0  0  0  0  0  0
   -3.2800    0.6340   -1.9170 H   0  0  0  0  0  0  0  0  0  0  0  0
   -2.3270    2.2780    0.2800 C   0  0  1  0  0  0  0  0  0  0  0  0
   -1.9930    1.2900    1.5530 C   0  0  1  0  0  0  0  0  0  0  0  0
   -2.0290    1.7330    3.0860 C   0  0  2  0  0  0  0  0  0  0  0  0
   -3.6040    2.3130    3.9530 S   0  0  2  0  0  6  0  0  0  0  0  0
   -3.4750    3.7940    4.7940 O   0  0  0  0  0  0  0  0  0  0  0  0
   -3.9420    1.1830    5.1980 O   0  0  0  0  0  0  0  0  0  0  0  0
   -4.9370    2.4770    2.8870 O   0  0  0  0  0  1  0  0  0  0  0  0
   -1.1960    2.4150    3.3340 H   0  0  0  0  0  0  0  0  0  0  0  0
   -1.7740    0.8150    3.6630 H   0  0  0  0  0  0  0  0  0  0  0  0
   -2.7060    0.4560    1.6190 H   0  0  0  0  0  0  0  0  0  0  0  0
   -1.0350    0.7670    1.4160 H   0  0  0  0  0  0  0  0  0  0  0  0
   -3.2180    1.7810    0.1700 H   0  0  0  0  0  0  0  0  0  0  0  0
   -2.9670    3.1460    0.5210 H   0  0  0  0  0  0  0  0  0  0  0  0
   -0.4710    1.3970   -2.6550 H   0  0  0  0  0  0  0  0  0  0  0  0
   -0.9730    0.3670   -1.3840 H   0  0  0  0  0  0  0  0  0  0  0  0
    1.1590    2.3690   -1.1850 H   0  0  0  0  0  0  0  0  0  0  0  0
    0.2560    1.8240    0.2520 H   0  0  0  0  0  0  0  0  0  0  0  0
    3.2660   -0.5440    0.9280 H   0  0  0  0  0  0  0  0  0  0  0  0
    4.5120   -1.7240    0.4710 H   0  0  0  0  0  0  0  0  0  0  0  0
    2.0380   -2.5940   -0.5140 C   0  0  2  0  0  0  0  0  0  0  0  0
    0.8100   -3.1690   -1.4150 C   0  0  2  0  0  0  0  0  0  0  0  0
    1.4660   -3.4660   -2.7860 C   0  0  1  0  0  0  0  0  0  0  0  0
    0.9460   -4.0830   -3.5050 H   0  0  0  0  0  0  0  0  0  0  0  0
    1.6220   -2.5210   -3.3320 H   0  0  0  0  0  0  0  0  0  0  0  0
    2.3990   -4.0570   -2.6340 H   0  0  0  0  0  0  0  0  0  0  0  0
   -0.3390   -2.1300   -1.4390 C   0  0  0  0  0  0  0  0  0  0  0  0
   -0.5000   -1.4960   -2.4650 O   0  0  0  0  0  0  0  0  0  0  0  0
   -1.3550   -2.1500   -0.4670 O   0  0  0  0  0  0  0  0  0  0  0  0
   -2.5760   -1.4240   -0.4990 C   0  0  2  0  0  0  0  0  0  0  0  0
   -3.6030   -1.7870    0.6150 C   0  0  1  0  0  0  0  0  0  0  0  0
   -4.9940   -1.1070    0.6140 N   0  0  1  0  0  0  0  0  0  0  0  0
   -5.0040    0.3010    0.1600 C   0  0  2  0  0  0  0  0  0  0  0  0
   -5.0170    1.0390    0.9810 H   0  0  0  0  0  0  0  0  0  0  0  0
   -5.9580    0.6100   -0.3340 H   0  0  0  0  0  0  0  0  0  0  0  0
   -4.7710    0.9340    1.0270 H   0  0  0  0  0  0  0  0  0  0  0  0
   -5.8010   -1.8010   -0.4150 C   0  0  1  0  0  0  0  0  0  0  0  0
   -6.8660   -1.4640   -0.3850 H   0  0  0  0  0  0  0  0  0  0  0  0
   -5.4170   -1.6090   -1.4420 H   0  0  0  0  0  0  0  0  0  0  0  0
   -5.7770   -2.8900   -0.2540 H   0  0  0  0  0  0  0  0  0  0  0  0
   -5.7780   -1.1450    1.9350 C   0  0  1  0  0  0  0  0  0  0  0  0
   -4.9820   -0.9040    3.2750 C   0  0  1  0  0  0  0  0  0  0  0  0
   -5.7690   -1.1450    4.6280 C   0  0  1  0  0  0  0  0  0  0  0  0
   -7.4690   -0.5200    4.7580 S   0  0  2  0  0  6  0  0  0  0  0  0
   -7.6670    0.0530    6.3620 O   0  0  0  0  0  0  0  0  0  0  0  0
   -8.5060   -1.8660    4.4850 O   0  0  0  0  0  0  0  0  0  0  0  0
   -7.8050    0.7360    3.6450 O   0  0  0  0  0  1  0  0  0  0  0  0
   -5.9310   -2.2000    4.9020 H   0  0  0  0  0  0  0  0  0  0  0  0
   -5.1620   -0.8340    5.4980 H   0  0  0  0  0  0  0  0  0  0  0  0
   -4.0710   -1.5240    3.3820 H   0  0  0  0  0  0  0  0  0  0  0  0
   -4.5860    0.0910    3.2140 H   0  0  0  0  0  0  0  0  0  0  0  0
   -6.5480   -0.3440    1.9240 H   0  0  0  0  0  0  0  0  0  0  0  0
   -6.4450   -2.0140    2.0050 H   0  0  0  0  0  0  0  0  0  0  0  0
   -3.6930   -2.8570    0.4190 H   0  0  0  0  0  0  0  0  0  0  0  0
   -3.0730   -1.6730    1.5710 H   0  0  0  0  0  0  0  0  0  0  0  0
   -3.0510   -1.5450   -1.4890 H   0  0  0  0  0  0  0  0  0  0  0  0
   -2.3730   -0.4010   -0.2860 H   0  0  0  0  0  0  0  0  0  0  0  0
    1.6020   -2.2850    0.4600 H   0  0  0  0  0  0  0  0  0  0  0  0
    2.7350   -3.4310   -0.2850 H   0  0  0  0  0  0  0  0  0  0  0  0
    0.0850   -4.5280   -0.9630 C   0  0  2  0  0  0  0  0  0  0  0  0
   -1.1580   -5.1230   -1.8800 C   0  0  2  0  0  0  0  0  0  0  0  0
   -1.6520   -4.1210   -2.9950 C   0  0  2  0  0  0  0  0  0  0  0  0
   -2.1000   -3.2100   -2.6030 H   0  0  0  0  0  0  0  0  0  0  0  0
   -2.5350   -4.5030   -3.4810 H   0  0  0  0  0  0  0  0  0  0  0  0
   -0.9830   -3.8600   -3.8230 H   0  0  0  0  0  0  0  0  0  0  0  0
   -2.4250   -5.4020   -0.9920 C   0  0  0  0  0  0  0  0  0  0  0  0
   -3.4450   -4.8320   -1.3680 O   0  0  0  0  0  0  0  0  0  0  0  0
   -2.5140   -6.1120    0.2150 O   0  0  0  0  0  0  0  0  0  0  0  0
   -3.4350   -5.5670    1.1440 C   0  0  2  0  0  0  0  0  0  0  0  0
   -4.1630   -6.2030    2.4450 C   0  0  1  0  0  0  0  0  0  0  0  0
   -5.0820   -5.2190    3.2350 N   0  0  2  0  0  0  0  0  0  0  0  0
   -6.5960   -5.1930    3.1330 C   0  0  1  0  0  0  0  0  0  0  0  0
   -7.0700   -4.3370    3.6800 H   0  0  0  0  0  0  0  0  0  0  0  0
   -7.0660   -4.9320    2.2090 H   0  0  0  0  0  0  0  0  0  0  0  0
   -7.0560   -5.9880    3.6920 H   0  0  0  0  0  0  0  0  0  0  0  0
   -4.7390   -3.8850    2.8290 C   0  0  1  0  0  0  0  0  0  0  0  0
   -5.2850   -3.2320    3.4110 H   0  0  0  0  0  0  0  0  0  0  0  0
   -4.8720   -3.7240    1.7600 H   0  0  0  0  0  0  0  0  0  0  0  0
   -5.3090   -3.7040    1.8840 H   0  0  0  0  0  0  0  0  0  0  0  0
   -5.0220   -5.4230    4.7110 C   0  0  2  0  0  0  0  0  0  0  0  0
   -3.8050   -5.2660    5.5670 C   0  0  1  0  0  0  0  0  0  0  0  0
   -4.2580   -5.7020    7.0000 C   0  0  2  0  0  0  0  0  0  0  0  0
   -5.6030   -4.7040    7.8130 S   0  0  2  0  0  6  0  0  0  0  0  0
   -4.9690   -3.1480    8.1510 O   0  0  0  0  0  0  0  0  0  0  0  0
   -6.0170   -5.5280    9.2590 O   0  0  0  0  0  0  0  0  0  0  0  0
   -7.0660   -4.5340    6.9200 O   0  0  0  0  0  1  0  0  0  0  0  0
   -3.3860   -5.7010    7.6730 H   0  0  0  0  0  0  0  0  0  0  0  0
   -4.6320   -6.7520    6.9580 H   0  0  0  0  0  0  0  0  0  0  0  0
   -3.0120   -5.9540    5.2210 H   0  0  0  0  0  0  0  0  0  0  0  0
   -3.4360   -4.2170    5.5490 H   0  0  0  0  0  0  0  0  0  0  0  0
   -5.4090   -6.4510    4.9100 H   0  0  0  0  0  0  0  0  0  0  0  0
   -5.6630   -4.6560    5.1800 H   0  0  0  0  0  0  0  0  0  0  0  0
   -4.7110   -7.1370    2.2040 H   0  0  0  0  0  0  0  0  0  0  0  0
   -3.3090   -6.4820    3.0860 H   0  0  0  0  0  0  0  0  0  0  0  0
   -4.2850   -5.3000    0.5560 H   0  0  0  0  0  0  0  0  0  0  0  0
   -2.9100   -4.6520    1.4780 H   0  0  0  0  0  0  0  0  0  0  0  0
   -0.2850   -4.3640    0.0710 H   0  0  0  0  0  0  0  0  0  0  0  0
    0.8570   -5.3230   -0.8280 H   0  0  0  0  0  0  0  0  0  0  0  0
   -0.6600   -6.3850   -2.6620 C   0  0  1  0  0  0  0  0  0  0  0  0
   -1.4160   -7.1840   -3.8360 C   0  0  1  0  0  0  0  0  0  0  0  0
   -1.7870   -6.3500   -5.1020 C   0  0  2  0  0  0  0  0  0  0  0  0
   -2.6690   -5.7140   -5.0350 H   0  0  0  0  0  0  0  0  0  0  0  0
   -2.0430   -7.0230   -5.9460 H   0  0  0  0  0  0  0  0  0  0  0  0
   -0.9220   -5.7310   -5.4300 H   0  0  0  0  0  0  0  0  0  0  0  0
   -0.2180   -8.1250   -4.3730 C   0  0  0  0  0  0  0  0  0  0  0  0
    0.0180   -8.1520   -5.5750 O   0  0  0  0  0  0  0  0  0  0  0  0
    0.7420   -8.6940   -3.5570 O   0  0  0  0  0  0  0  0  0  0  0  0
    2.0040   -8.9020   -3.9740 N   0  0  0  0  0  0  0  0  0  0  0  0
    2.9680   -7.9520   -4.0100 C   0  0  0  0  0  0  0  0  0  0  0  0
    2.7880   -6.8160   -3.6100 O   0  0  0  0  0  0  0  0  0  0  0  0
    4.2960   -8.4850   -4.4720 C   0  0  1  0  0  0  0  0  0  0  0  0
    4.7360   -7.9210   -5.3180 H   0  0  0  0  0  0  0  0  0  0  0  0
    5.0000   -8.4840   -3.6070 H   0  0  0  0  0  0  0  0  0  0  0  0
    3.9580   -9.9240   -4.8730 C   0  0  2  0  0  0  0  0  0  0  0  0
    4.6560  -10.6530   -4.4130 H   0  0  0  0  0  0  0  0  0  0  0  0
    3.9530  -10.0470   -5.9810 H   0  0  0  0  0  0  0  0  0  0  0  0
    2.5470  -10.0670   -4.3950 C   0  0  0  0  0  0  0  0  0  0  0  0
    1.9610  -11.1320   -4.4280 O   0  0  0  0  0  0  0  0  0  0  0  0
    0.2960   -6.0660   -3.1170 H   0  0  0  0  0  0  0  0  0  0  0  0
   -0.3840   -7.1300   -1.8860 H   0  0  0  0  0  0  0  0  0  0  0  0
   -2.7490   -7.9640   -3.2870 C   0  0  2  0  0  0  0  0  0  0  0  0
   -4.3850   -7.9630   -3.5470 C   0  0  2  0  0  0  0  0  0  0  0  0
   -4.6480   -8.1170   -5.0680 C   0  0  1  0  0  0  0  0  0  0  0  0
   -5.7340   -8.0270   -5.2760 H   0  0  0  0  0  0  0  0  0  0  0  0
   -4.2130   -7.2820   -5.6420 H   0  0  0  0  0  0  0  0  0  0  0  0
   -4.2680   -9.0370   -5.5230 H   0  0  0  0  0  0  0  0  0  0  0  0
   -5.0900   -6.6510   -3.2490 C   0  0  0  0  0  0  0  0  0  0  0  0
   -4.6980   -5.6010   -3.7570 O   0  0  0  0  0  0  0  0  0  0  0  0
   -6.3090   -6.6700   -2.6540 O   0  0  0  0  0  0  0  0  0  0  0  0
   -7.3250   -5.7260   -2.8020 C   0  0  2  0  0  0  0  0  0  0  0  0
   -8.4390   -5.9550   -1.7120 C   0  0  1  0  0  0  0  0  0  0  0  0
   -8.0180   -5.6080   -0.3070 N   0  0  1  0  0  0  0  0  0  0  0  0
   -6.6180   -6.0270   -0.1890 C   0  0  0  0  0  0  0  0  0  0  0  0
   -6.5030   -7.1270   -0.2590 H   0  0  0  0  0  0  0  0  0  0  0  0
   -6.1680   -5.6950    0.6990 H   0  0  0  0  0  0  0  0  0  0  0  0
   -6.5030   -7.1270   -0.2590 H   0  0  0  0  0  0  0  0  0  0  0  0
   -8.1470   -4.1230   -0.2490 C   0  0  1  0  0  0  0  0  0  0  0  0
   -7.8190   -3.6940    0.7090 H   0  0  0  0  0  0  0  0  0  0  0  0
   -7.6150   -3.6340   -1.0700 H   0  0  0  0  0  0  0  0  0  0  0  0
   -9.2230   -3.8360   -0.3640 H   0  0  0  0  0  0  0  0  0  0  0  0
   -8.8580   -6.1760    0.8350 C   0  0  2  0  0  0  0  0  0  0  0  0
   -8.1880   -7.2580    1.8370 C   0  0  1  0  0  0  0  0  0  0  0  0
   -8.7400   -7.5190    3.2950 C   0  0  1  0  0  0  0  0  0  0  0  0
   -9.6660   -6.3660    4.3800 S   0  0  2  0  0  6  0  0  0  0  0  0
   -8.8650   -6.3920    5.9000 O   0  0  0  0  0  0  0  0  0  0  0  0
  -11.2530   -6.9850    4.5970 O   0  0  0  0  0  0  0  0  0  0  0  0
   -9.6890   -4.7520    3.8100 O   0  0  0  0  0  1  0  0  0  0  0  0
   -7.9780   -8.0370    3.9170 H   0  0  0  0  0  0  0  0  0  0  0  0
   -7.9780   -8.0370    3.9170 H   0  0  0  0  0  0  0  0  0  0  0  0
   -8.0270   -8.2360    1.3740 H   0  0  0  0  0  0  0  0  0  0  0  0
   -7.1180   -7.1130    1.9610 H   0  0  0  0  0  0  0  0  0  0  0  0
   -9.8280   -6.4660    0.4010 H   0  0  0  0  0  0  0  0  0  0  0  0
   -9.1550   -5.3640    1.5300 H   0  0  0  0  0  0  0  0  0  0  0  0
   -9.3650   -5.4060   -2.0010 H   0  0  0  0  0  0  0  0  0  0  0  0
   -8.7240   -6.9830   -1.8110 H   0  0  0  0  0  0  0  0  0  0  0  0
   -7.7570   -5.8600   -3.8160 H   0  0  0  0  0  0  0  0  0  0  0  0
   -6.9160   -4.6960   -2.7590 H   0  0  0  0  0  0  0  0  0  0  0  0
   -2.6040   -8.0510   -2.2030 H   0  0  0  0  0  0  0  0  0  0  0  0
   -2.5590   -8.9170   -3.7430 H   0  0  0  0  0  0  0  0  0  0  0  0
   -5.0290   -9.2070   -2.6250 C   0  0  2  0  0  0  0  0  0  0  0  0
   -6.3610  -10.1870   -2.7420 C   0  0  2  0  0  0  0  0  0  0  0  0
   -6.4340  -10.7510   -4.1760 C   0  0  1  0  0  0  0  0  0  0  0  0
   -7.3760  -11.2650   -4.3860 H   0  0  0  0  0  0  0  0  0  0  0  0
   -6.4420   -9.9560   -4.9280 H   0  0  0  0  0  0  0  0  0  0  0  0
   -5.6190  -11.4370   -4.4090 H   0  0  0  0  0  0  0  0  0  0  0  0
   -7.6950   -9.4440   -2.4940 C   0  0  0  0  0  0  0  0  0  0  0  0
   -8.0360   -8.5780   -3.3100 O   0  0  0  0  0  0  0  0  0  0  0  0
   -8.5110   -9.8340   -1.5070 O   0  0  0  0  0  0  0  0  0  0  0  0
   -9.4970   -9.1030   -0.8060 C   0  0  2  0  0  0  0  0  0  0  0  0
  -10.0690  -10.0280    0.2700 C   0  0  1  0  0  0  0  0  0  0  0  0
  -10.8390   -9.5860    1.5030 N   0  0  1  0  0  0  0  0  0  0  0  0
  -11.2770   -8.1640    1.5560 C   0  0  2  0  0  0  0  0  0  0  0  0
  -10.5940   -7.4900    1.9720 H   0  0  0  0  0  0  0  0  0  0  0  0
  -12.0830   -7.9940    2.3100 H   0  0  0  0  0  0  0  0  0  0  0  0
  -11.6450   -7.7930    0.5760 H   0  0  0  0  0  0  0  0  0  0  0  0
  -12.1920  -10.2220    1.4000 C   0  0  1  0  0  0  0  0  0  0  0  0
  -12.8210  -10.0230    2.2970 H   0  0  0  0  0  0  0  0  0  0  0  0
  -12.7520   -9.8410    0.5130 H   0  0  0  0  0  0  0  0  0  0  0  0
  -12.1620  -11.2980    1.2570 H   0  0  0  0  0  0  0  0  0  0  0  0
  -10.1550  -10.0450    2.8120 C   0  0  2  0  0  0  0  0  0  0  0  0
   -8.6220  -10.5150    2.9730 C   0  0  1  0  0  0  0  0  0  0  0  0
   -8.2050  -11.1350    4.3550 C   0  0  2  0  0  0  0  0  0  0  0  0
   -8.3060  -10.1670    5.9070 S   0  0  2  0  0  6  0  0  0  0  0  0
   -6.9810   -9.0810    6.0280 O   0  0  0  0  0  0  0  0  0  0  0  0
   -8.1890  -11.3110    7.1860 O   0  0  0  0  0  0  0  0  0  0  0  0
   -9.8090   -9.3540    6.0390 O   0  0  0  0  0  1  0  0  0  0  0  0
   -7.1450  -11.4670    4.2750 H   0  0  0  0  0  0  0  0  0  0  0  0
   -8.7720  -12.0420    4.5790 H   0  0  0  0  0  0  0  0  0  0  0  0
   -8.3960  -11.3480    2.2850 H   0  0  0  0  0  0  0  0  0  0  0  0
   -7.8550   -9.7910    2.7210 H   0  0  0  0  0  0  0  0  0  0  0  0
  -10.5230  -11.0030    2.9930 H   0  0  0  0  0  0  0  0  0  0  0  0
  -10.4770   -9.4170    3.6630 H   0  0  0  0  0  0  0  0  0  0  0  0
  -10.6770  -10.7250   -0.3280 H   0  0  0  0  0  0  0  0  0  0  0  0
   -9.1750  -10.5670    0.5880 H   0  0  0  0  0  0  0  0  0  0  0  0
  -10.2650   -8.6830   -1.4700 H   0  0  0  0  0  0  0  0  0  0  0  0
   -8.9500   -8.3320   -0.3390 H   0  0  0  0  0  0  0  0  0  0  0  0
   -5.0010   -8.8330   -1.5770 H   0  0  0  0  0  0  0  0  0  0  0  0
   -4.2170   -9.9320   -2.6190 H   0  0  0  0  0  0  0  0  0  0  0  0
   -6.2200  -11.4470   -1.6550 C   0  0  2  0  0  0  0  0  0  0  0  0
   -7.1030  -12.8280   -1.4590 C   0  0  2  0  0  0  0  0  0  0  0  0
   -7.4440  -13.4340   -2.8350 C   0  0  1  0  0  0  0  0  0  0  0  0
   -7.9320  -14.4250   -2.7230 H   0  0  0  0  0  0  0  0  0  0  0  0
   -8.1950  -12.8190   -3.3620 H   0  0  0  0  0  0  0  0  0  0  0  0
   -6.5410  -13.5470   -3.4680 H   0  0  0  0  0  0  0  0  0  0  0  0
   -8.5170  -12.7380   -0.6830 C   0  0  0  0  0  0  0  0  0  0  0  0
   -9.4460  -12.2980   -1.3380 O   0  0  0  0  0  0  0  0  0  0  0  0
   -8.8260  -13.3100    0.5840 O   0  0  0  0  0  0  0  0  0  0  0  0
  -10.1100  -13.2820    1.2380 C   0  0  2  0  0  0  0  0  0  0  0  0
  -10.2450  -13.8960    2.7290 C   0  0  1  0  0  0  0  0  0  0  0  0
  -11.5680  -13.7430    3.5450 N   0  0  1  0  0  0  0  0  0  0  0  0
  -11.8400  -12.4400    4.2240 C   0  0  2  0  0  0  0  0  0  0  0  0
  -12.6300  -12.5210    5.0100 H   0  0  0  0  0  0  0  0  0  0  0  0
  -12.3140  -11.6910    3.5770 H   0  0  0  0  0  0  0  0  0  0  0  0
  -10.9560  -12.0380    4.7530 H   0  0  0  0  0  0  0  0  0  0  0  0
  -12.7210  -13.9800    2.6570 C   0  0  1  0  0  0  0  0  0  0  0  0
  -13.6930  -13.8800    3.2230 H   0  0  0  0  0  0  0  0  0  0  0  0
  -12.7910  -13.2270    1.8600 H   0  0  0  0  0  0  0  0  0  0  0  0
  -12.6780  -14.9820    2.2060 H   0  0  0  0  0  0  0  0  0  0  0  0
  -11.6310  -14.7670    4.6550 C   0  0  2  0  0  0  0  0  0  0  0  0
  -10.7730  -14.4910    5.9280 C   0  0  1  0  0  0  0  0  0  0  0  0
  -11.1920  -15.4280    7.0730 C   0  0  2  0  0  0  0  0  0  0  0  0
  -10.3590  -14.9870    8.6350 S   0  0  2  0  0  6  0  0  0  0  0  0
   -8.6800  -14.7800    8.3570 O   0  0  0  0  0  0  0  0  0  0  0  0
  -10.6400  -16.2620    9.7480 O   0  0  0  0  0  0  0  0  0  0  0  0
  -11.0550  -13.5310    9.2260 O   0  0  0  0  0  1  0  0  0  0  0  0
  -10.9870  -16.4820    6.8050 H   0  0  0  0  0  0  0  0  0  0  0  0
  -12.2790  -15.3020    7.2580 H   0  0  0  0  0  0  0  0  0  0  0  0
   -9.6950  -14.5900    5.7000 H   0  0  0  0  0  0  0  0  0  0  0  0
  -10.9480  -13.4760    6.3380 H   0  0  0  0  0  0  0  0  0  0  0  0
  -11.4370  -15.7860    4.2690 H   0  0  0  0  0  0  0  0  0  0  0  0
  -12.6900  -14.7900    5.0350 H   0  0  0  0  0  0  0  0  0  0  0  0
  -10.0520  -14.9820    2.5870 H   0  0  0  0  0  0  0  0  0  0  0  0
   -9.4060  -13.5450    3.3330 H   0  0  0  0  0  0  0  0  0  0  0  0
  -10.8650  -13.7560    0.5780 H   0  0  0  0  0  0  0  0  0  0  0  0
  -10.3680  -12.2610    1.3360 H   0  0  0  0  0  0  0  0  0  0  0  0
   -6.1050  -11.0000   -0.6430 H   0  0  0  0  0  0  0  0  0  0  0  0
   -5.2240  -11.8530   -1.8920 H   0  0  0  0  0  0  0  0  0  0  0  0
    6.6170    1.7160    1.5590 C   0  0  0  0  0  0  0  0  0  0  0  0
    7.2530    2.0680    2.6940 C   0  0  0  0  0  0  0  0  0  0  0  0
    8.1390    3.2970    2.7000 C   0  0  1  0  0  0  0  0  0  0  0  0
    8.1890    3.7950    1.7010 H   0  0  0  0  0  0  0  0  0  0  0  0
    7.7480    4.0380    3.4250 H   0  0  0  0  0  0  0  0  0  0  0  0
    9.1750    3.0200    2.9860 H   0  0  0  0  0  0  0  0  0  0  0  0
    7.1100    1.3240    3.9560 C   0  0  0  0  0  0  0  0  0  0  0  0
    7.6360    1.7440    4.9890 O   0  0  0  0  0  0  0  0  0  0  0  0
    6.3950    0.1400    4.0450 O   0  0  0  0  0  0  0  0  0  0  0  0
    6.0880   -0.4580    5.2540 C   0  0  1  0  0  0  0  0  0  0  0  0
    5.3150   -1.7750    5.0870 C   0  0  1  0  0  0  0  0  0  0  0  0
    6.0270   -2.9740    4.5120 N   0  0  2  0  0  0  0  0  0  0  0  0
    6.0550   -2.9250    3.0340 C   0  0  2  0  0  0  0  0  0  0  0  0
    6.4250   -3.8840    2.6060 H   0  0  0  0  0  0  0  0  0  0  0  0
    6.7070   -2.1190    2.6730 H   0  0  0  0  0  0  0  0  0  0  0  0
    5.0370   -2.7590    2.6150 H   0  0  0  0  0  0  0  0  0  0  0  0
    5.1860   -4.1500    4.8690 C   0  0  2  0  0  0  0  0  0  0  0  0
    5.1290   -4.2870    5.9720 H   0  0  0  0  0  0  0  0  0  0  0  0
    5.5980   -5.0930    4.4420 H   0  0  0  0  0  0  0  0  0  0  0  0
    4.1440   -4.0380    4.4860 H   0  0  0  0  0  0  0  0  0  0  0  0
    7.3890   -3.1910    5.1240 C   0  0  1  0  0  0  0  0  0  0  0  0
    8.5940   -2.4320    4.4800 C   0  0  2  0  0  0  0  0  0  0  0  0
    9.2820   -3.1220    3.2810 C   0  0  1  0  0  0  0  0  0  0  0  0
   10.3210   -4.5430    3.7790 S   0  0  1  0  0  6  0  0  0  0  0  0
    9.4200   -5.7570    4.5910 O   0  0  0  0  0  0  0  0  0  0  0  0
   11.0120   -5.2030    2.3530 O   0  0  0  0  0  0  0  0  0  0  0  0
   11.5610   -3.9380    4.8010 O   0  0  0  0  0  1  0  0  0  0  0  0
    8.5940   -3.4150    2.4690 H   0  0  0  0  0  0  0  0  0  0  0  0
    9.9910   -2.3900    2.8400 H   0  0  0  0  0  0  0  0  0  0  0  0
    9.3860   -2.3050    5.2480 H   0  0  0  0  0  0  0  0  0  0  0  0
    8.2960   -1.4140    4.1820 H   0  0  0  0  0  0  0  0  0  0  0  0
    7.3310   -2.8860    6.1920 H   0  0  0  0  0  0  0  0  0  0  0  0
    7.6550   -4.2620    5.1630 H   0  0  0  0  0  0  0  0  0  0  0  0
    5.0040   -2.0080    6.1300 H   0  0  0  0  0  0  0  0  0  0  0  0
    4.3750   -1.5650    4.5240 H   0  0  0  0  0  0  0  0  0  0  0  0
    7.0050   -0.6080    5.8660 H   0  0  0  0  0  0  0  0  0  0  0  0
    5.4460    0.2510    5.8180 H   0  0  0  0  0  0  0  0  0  0  0  0
    6.7880    2.3450    0.6790 H   0  0  0  0  0  0  0  0  0  0  0  0
   -6.3040  -13.9470   -0.7410 C   0  0  0  0  0  0  0  0  0  0  0  0
   -5.2740  -14.8090   -1.1000 C   0  0  0  0  0  0  0  0  0  0  0  0
   -5.0680  -15.9810   -0.1530 C   0  0  1  0  0  0  0  0  0  0  0  0
   -5.7550  -15.9990    0.7180 H   0  0  0  0  0  0  0  0  0  0  0  0
   -5.2570  -16.9280   -0.7040 H   0  0  0  0  0  0  0  0  0  0  0  0
   -4.0280  -15.9790    0.2270 H   0  0  0  0  0  0  0  0  0  0  0  0
   -4.3540  -14.9170   -2.3110 C   0  0  0  0  0  0  0  0  0  0  0  0
   -4.1030  -16.0500   -2.7030 O   0  0  0  0  0  0  0  0  0  0  0  0
   -3.5030  -13.9200   -2.6980 O   0  0  0  0  0  0  0  0  0  0  0  0
   -2.1460  -14.1700   -2.9920 C   0  0  1  0  0  0  0  0  0  0  0  0
   -1.4590  -13.2980   -4.0920 C   0  0  1  0  0  0  0  0  0  0  0  0
   -1.7000  -11.8190   -4.0610 N   0  0  2  0  0  0  0  0  0  0  0  0
   -3.1330  -11.6230   -4.2880 C   0  0  1  0  0  0  0  0  0  0  0  0
   -3.7170  -11.8350   -3.4150 H   0  0  0  0  0  0  0  0  0  0  0  0
   -3.3720  -10.6080   -4.5650 H   0  0  0  0  0  0  0  0  0  0  0  0
   -3.5130  -12.2450   -5.1260 H   0  0  0  0  0  0  0  0  0  0  0  0
   -1.0530  -11.2210   -5.2870 C   0  0  1  0  0  0  0  0  0  0  0  0
   -0.9640  -11.9220   -6.1450 H   0  0  0  0  0  0  0  0  0  0  0  0
   -1.5880  -10.3230   -5.6800 H   0  0  0  0  0  0  0  0  0  0  0  0
   -0.0770  -10.8000   -5.0950 H   0  0  0  0  0  0  0  0  0  0  0  0
   -1.1240  -11.1540   -2.8190 C   0  0  1  0  0  0  0  0  0  0  0  0
   -1.7720  -11.4690   -1.4350 C   0  0  2  0  0  0  0  0  0  0  0  0
   -1.6610  -10.3700   -0.3580 C   0  0  1  0  0  0  0  0  0  0  0  0
   -0.0110  -10.0410    0.3360 S   0  0  1  0  0  6  0  0  0  0  0  0
    0.8820   -8.9920   -0.6850 O   0  0  0  0  0  0  0  0  0  0  0  0
   -0.2790   -9.2760    1.8520 O   0  0  0  0  0  0  0  0  0  0  0  0
    0.8210  -11.5220    0.5660 O   0  0  0  0  0  1  0  0  0  0  0  0
   -2.0880   -9.4220   -0.7120 H   0  0  0  0  0  0  0  0  0  0  0  0
   -2.2910  -10.6810    0.5020 H   0  0  0  0  0  0  0  0  0  0  0  0
   -1.3560  -12.3890   -1.0000 H   0  0  0  0  0  0  0  0  0  0  0  0
   -2.8560  -11.5780   -1.5520 H   0  0  0  0  0  0  0  0  0  0  0  0
   -0.0270  -11.3310   -2.7340 H   0  0  0  0  0  0  0  0  0  0  0  0
   -1.1860  -10.0830   -2.9240 H   0  0  0  0  0  0  0  0  0  0  0  0
   -0.3600  -13.5090   -4.0760 H   0  0  0  0  0  0  0  0  0  0  0  0
   -1.8160  -13.7020   -5.0670 H   0  0  0  0  0  0  0  0  0  0  0  0
   -1.5720  -14.1160   -2.0610 H   0  0  0  0  0  0  0  0  0  0  0  0
   -1.9820  -15.2210   -3.3230 H   0  0  0  0  0  0  0  0  0  0  0  0
   -6.7530  -14.2120    0.2030 H   0  0  0  0  0  0  0  0  0  0  0  0
  1  2  1  0
  1 38  1  1
  1 39  1  0
  1296  1  0
  2  3  1  0
  2  7  1  6
  2 40  1  0
  3  4  1  6
  3  5  1  0
  3  6  1  0
  7  8  2  0
  7  9  1  0
  9 10  1  0
 10 11  1  0
 10 36  1  6
 10 37  1  0
 12 11  1  6
 11 34  1  6
 11 35  1  0
 12 13  1  0
 12 17  1  0
 12 21  1  0
 13 14  1  1
 13 15  1  0
 13 16  1  0
 17 18  1  1
 17 19  1  0
 17 20  1  0
 21 22  1  0
 21 32  1  1
 21 33  1  0
 22 23  1  0
 22 30  1  1
 22 31  1  0
 23 24  1  0
 23 28  1  1
 23 29  1  0
 24 25  2  0
 24 26  2  0
 24 27  1  6
 40 41  1  0
 40 77  1  1
 40 78  1  0
 41 42  1  0
 41 46  1  6
 41 79  1  0
 42 43  1  6
 42 44  1  0
 42 45  1  0
 46 47  2  0
 46 48  1  0
 48 49  1  0
 49 50  1  0
 49 75  1  6
 49 76  1  0
 51 50  1  1
 50 73  1  6
 50 74  1  0
 51 52  1  0
 51 56  1  0
 51 60  1  0
 52 53  1  6
 52 54  1  0
 52 55  1  0
 56 57  1  6
 56 58  1  0
 56 59  1  0
 60 61  1  0
 60 71  1  6
 60 72  1  0
 61 62  1  0
 61 69  1  1
 61 70  1  0
 62 63  1  0
 62 67  1  6
 62 68  1  0
 63 64  2  0
 63 65  2  0
 63 66  1  6
 79 80  1  0
 79116  1  1
 79117  1  0
 80 81  1  0
 80 85  1  6
 80118  1  0
 81 82  1  6
 81 83  1  0
 81 84  1  0
 85 86  2  0
 85 87  1  0
 87 88  1  0
 88 89  1  0
 88114  1  6
 88115  1  0
 90 89  1  1
 89112  1  6
 89113  1  0
 90 91  1  0
 90 95  1  0
 90 99  1  0
 91 92  1  1
 91 93  1  0
 91 94  1  0
 95 96  1  6
 95 97  1  0
 95 98  1  0
 99100  1  0
 99110  1  6
 99111  1  0
100101  1  0
100108  1  6
100109  1  0
101102  1  0
101106  1  1
101107  1  0
102103  2  0
102104  2  0
102105  1  6
118119  1  0
118155  1  1
118156  1  0
119120  1  0
119124  1  1
119157  1  0
120121  1  1
120122  1  0
120123  1  0
124125  2  0
124126  1  0
126127  1  0
127128  1  0
127153  1  6
127154  1  0
129128  1  6
128151  1  6
128152  1  0
129130  1  0
129134  1  0
129138  1  0
130131  1  1
130132  1  0
130133  1  0
134135  1  6
134136  1  0
134137  1  0
138139  1  0
138149  1  6
138150  1  0
139140  1  0
139147  1  6
139148  1  0
140141  1  0
140145  1  1
140146  1  0
141142  2  0
141143  2  0
141144  1  6
157158  1  0
157177  1  6
157178  1  0
158159  1  0
158163  1  6
158179  1  0
159160  1  1
159161  1  0
159162  1  0
163164  2  0
163165  1  0
165166  1  0
166167  1  0
166175  1  0
167168  2  0
167169  1  0
169170  1  6
169171  1  0
169172  1  0
172173  1  1
172174  1  0
172175  1  0
175176  2  0
179180  1  0
179216  1  1
179217  1  0
180181  1  0
180185  1  1
180218  1  0
181182  1  1
181183  1  0
181184  1  0
185186  2  0
185187  1  0
187188  1  0
188189  1  0
188214  1  6
188215  1  0
190189  1  6
189212  1  6
189213  1  0
190191  1  0
190195  1  0
190199  1  0
191192  1  6
191193  1  0
191194  1  0
195196  1  1
195197  1  0
195198  1  0
199200  1  0
199210  1  6
199211  1  0
200201  1  0
200208  1  6
200209  1  0
201202  1  0
201206  1  6
201207  1  0
202203  2  0
202204  2  0
202205  1  6
218219  1  0
218255  1  1
218256  1  0
219220  1  0
219224  1  1
219257  1  0
220221  1  1
220222  1  0
220223  1  0
224225  2  0
224226  1  0
226227  1  0
227228  1  0
227253  1  6
227254  1  0
229228  1  6
228251  1  6
228252  1  0
229230  1  0
229234  1  0
229238  1  0
230231  1  1
230232  1  0
230233  1  0
234235  1  1
234236  1  0
234237  1  0
238239  1  0
238249  1  1
238250  1  0
239240  1  0
239247  1  6
239248  1  0
240241  1  0
240245  1  6
240246  1  0
241242  2  0
241243  2  0
241244  1  6
257258  1  0
257294  1  1
257295  1  0
258259  1  0
258263  1  1
258334  1  0
259260  1  1
259261  1  0
259262  1  0
263264  2  0
263265  1  0
265266  1  0
266267  1  0
266292  1  6
266293  1  0
268267  1  6
267290  1  6
267291  1  0
268269  1  0
268273  1  0
268277  1  0
269270  1  1
269271  1  0
269272  1  0
273274  1  1
273275  1  0
273276  1  0
277278  1  0
277288  1  6
277289  1  0
278279  1  0
278286  1  6
278287  1  0
279280  1  0
279284  1  6
279285  1  0
280281  2  0
280282  2  0
280283  1  1
296297  2  3
296333  1  0
297298  1  0
297302  1  0
298299  1  6
298300  1  0
298301  1  0
302303  2  0
302304  1  0
304305  1  0
305306  1  0
305331  1  1
305332  1  0
307306  1  1
306329  1  1
306330  1  0
307308  1  0
307312  1  0
307316  1  0
308309  1  6
308310  1  0
308311  1  0
312313  1  1
312314  1  0
312315  1  0
316317  1  0
316327  1  1
316328  1  0
317318  1  0
317325  1  1
317326  1  0
318319  1  0
318323  1  6
318324  1  0
319320  2  0
319321  2  0
319322  1  1
334335  2  3
334371  1  0
335336  1  0
335340  1  0
336337  1  1
336338  1  0
336339  1  0
340341  2  0
340342  1  0
342343  1  0
343344  1  0
343369  1  1
343370  1  0
345344  1  1
344367  1  6
344368  1  0
345346  1  0
345350  1  0
345354  1  0
346347  1  1
346348  1  0
346349  1  0
350351  1  6
350352  1  0
350353  1  0
354355  1  0
354365  1  1
354366  1  0
355356  1  0
355363  1  1
355364  1  0
356357  1  0
356361  1  6
356362  1  0
357358  2  0
357359  2  0
357360  1  1
M  CHG  8  12   1  51   1  90   1 129   1 190   1 229   1 268   1 307   1
M  RAD  8  27   2  66   2 105   2 144   2 205   2 244   2 283   2 322   2
M  CHG  1 345   1
M  RAD  1 360   2
M  END
