
     RDKit          3D

440440  0  0  0  0  0  0  0  0999 V2000
    5.5850    0.5360    0.5720 C   0  0  0  0  0  0  0  0  0  0  0  0
    5.0080    0.3180   -0.9070 C   0  0  2  0  0  0  0  0  0  0  0  0
    6.2950   -0.2500   -1.6370 C   0  0  0  0  0  0  0  0  0  0  0  0
    6.2500   -0.4560   -2.7100 H   0  0  0  0  0  0  0  0  0  0  0  0
    7.1700    0.4270   -1.5330 H   0  0  0  0  0  0  0  0  0  0  0  0
    6.6110   -1.2120   -1.1610 H   0  0  0  0  0  0  0  0  0  0  0  0
    4.4680    1.6590   -1.5230 C   0  0  0  0  0  0  0  0  0  0  0  0
    5.1400    2.2660   -2.3430 O   0  0  0  0  0  0  0  0  0  0  0  0
    3.1920    2.1130   -1.2110 O   0  0  0  0  0  0  0  0  0  0  0  0
    2.4750    3.3090   -1.4410 C   0  0  0  0  0  0  0  0  0  0  0  0
    1.0370    3.1180   -0.7900 C   0  0  0  0  0  0  0  0  0  0  0  0
   -0.0240    4.1460   -0.3770 N   0  0  0  0  0  0  0  0  0  0  0  0
    0.3670    5.2640    0.4880 C   0  0  0  0  0  0  0  0  0  0  0  0
    0.5820    4.9390    1.5210 H   0  0  0  0  0  0  0  0  0  0  0  0
   -0.4990    5.9700    0.5760 H   0  0  0  0  0  0  0  0  0  0  0  0
    1.2220    5.8220    0.0660 H   0  0  0  0  0  0  0  0  0  0  0  0
   -0.5240    4.7200   -1.6710 C   0  0  0  0  0  0  0  0  0  0  0  0
   -1.4010    5.3850   -1.5270 H   0  0  0  0  0  0  0  0  0  0  0  0
    0.2840    5.2410   -2.2210 H   0  0  0  0  0  0  0  0  0  0  0  0
   -0.9040    3.9190   -2.3620 H   0  0  0  0  0  0  0  0  0  0  0  0
   -1.2330    3.4790    0.2630 C   0  0  0  0  0  0  0  0  0  0  0  0
   -1.6280    3.1410    1.8160 C   0  0  0  0  0  0  0  0  0  0  0  0
   -3.1580    2.8130    2.2620 C   0  0  0  0  0  0  0  0  0  0  0  0
   -4.6900    3.9340    2.1240 S   0  0  0  0  0  6  0  0  0  0  0  0
   -4.4760    5.4100    2.9480 O   0  0  0  0  0  0  0  0  0  0  0  0
   -6.0820    3.2470    2.8680 O   0  0  0  0  0  0  0  0  0  0  0  0
   -5.1820    4.1980    0.5010 O   0  0  0  0  0  0  0  0  0  0  0  0
   -3.2200    2.2230    3.2050 H   0  0  0  0  0  0  0  0  0  0  0  0
   -3.2200    2.2230    3.2050 H   0  0  0  0  0  0  0  0  0  0  0  0
   -1.1360    2.1560    2.0350 H   0  0  0  0  0  0  0  0  0  0  0  0
   -1.2040    3.8420    2.5440 H   0  0  0  0  0  0  0  0  0  0  0  0
   -1.1040    2.4410    0.0510 H   0  0  0  0  0  0  0  0  0  0  0  0
   -1.6540    2.9710   -0.5280 H   0  0  0  0  0  0  0  0  0  0  0  0
    0.5490    2.6170   -1.6000 H   0  0  0  0  0  0  0  0  0  0  0  0
    1.1120    2.2660   -0.1250 H   0  0  0  0  0  0  0  0  0  0  0  0
    2.3790    3.4870   -2.5370 H   0  0  0  0  0  0  0  0  0  0  0  0
    3.0310    4.1480   -0.9910 H   0  0  0  0  0  0  0  0  0  0  0  0
    4.7820    0.6590    1.3090 H   0  0  0  0  0  0  0  0  0  0  0  0
    6.1370   -0.3660    0.8660 H   0  0  0  0  0  0  0  0  0  0  0  0
    3.7920   -0.7470   -0.8710 C   0  0  0  0  0  0  0  0  0  0  0  0
    2.7880   -1.0200   -2.1300 C   0  0  2  0  0  0  0  0  0  0  0  0
    3.7890   -1.5100   -3.2250 C   0  0  0  0  0  0  0  0  0  0  0  0
    3.3800   -1.8320   -4.1860 H   0  0  0  0  0  0  0  0  0  0  0  0
    4.4170   -0.6580   -3.5200 H   0  0  0  0  0  0  0  0  0  0  0  0
    4.4560   -2.3210   -2.8350 H   0  0  0  0  0  0  0  0  0  0  0  0
    2.0040    0.1830   -2.5950 C   0  0  0  0  0  0  0  0  0  0  0  0
    2.2150    0.6500   -3.7070 O   0  0  0  0  0  0  0  0  0  0  0  0
    0.9130    0.6020   -1.8980 O   0  0  0  0  0  0  0  0  0  0  0  0
   -0.3580    0.3130   -2.3600 C   0  0  0  0  0  0  0  0  0  0  0  0
   -1.7420    0.9490   -1.7450 C   0  0  0  0  0  0  0  0  0  0  0  0
   -3.2220    0.8240   -1.3120 N   0  0  0  0  0  0  0  0  0  0  0  0
   -3.7310    2.1350   -0.8460 C   0  0  0  0  0  0  0  0  0  0  0  0
   -3.4020    2.3490    0.1050 H   0  0  0  0  0  0  0  0  0  0  0  0
   -4.8170    2.1410   -0.6430 H   0  0  0  0  0  0  0  0  0  0  0  0
   -3.4520    3.0090   -1.4900 H   0  0  0  0  0  0  0  0  0  0  0  0
   -4.0920    0.9540   -2.5980 C   0  0  0  0  0  0  0  0  0  0  0  0
   -5.1760    1.0960   -2.4790 H   0  0  0  0  0  0  0  0  0  0  0  0
   -3.7850    1.8380   -3.2100 H   0  0  0  0  0  0  0  0  0  0  0  0
   -3.9340    0.2220   -3.3730 H   0  0  0  0  0  0  0  0  0  0  0  0
   -3.3520   -0.2020    0.0210 C   0  0  0  0  0  0  0  0  0  0  0  0
   -4.2490   -1.6340    0.7610 C   0  0  0  0  0  0  0  0  0  0  0  0
   -5.8040   -2.6890    0.5370 C   0  0  0  0  0  0  0  0  0  0  0  0
   -7.9170   -2.4260    0.2980 S   0  0  0  0  0  6  0  0  0  0  0  0
   -8.8000   -1.3570    1.3310 O   0  0  0  0  0  0  0  0  0  0  0  0
   -8.8540   -3.8240    0.5130 O   0  0  0  0  0  0  0  0  0  0  0  0
   -8.3790   -1.9230   -1.2780 O   0  0  0  0  0  0  0  0  0  0  0  0
   -5.6650   -3.6740    0.1830 H   0  0  0  0  0  0  0  0  0  0  0  0
   -5.6650   -3.6740    0.1820 H   0  0  0  0  0  0  0  0  0  0  0  0
   -3.7930   -1.8110    1.7450 H   0  0  0  0  0  0  0  0  0  0  0  0
   -3.8030   -1.7960    1.7510 H   0  0  0  0  0  0  0  0  0  0  0  0
   -3.7700    0.4410    0.5880 H   0  0  0  0  0  0  0  0  0  0  0  0
   -2.5300    0.0300    0.6930 H   0  0  0  0  0  0  0  0  0  0  0  0
   -1.9580    0.3620   -2.6270 H   0  0  0  0  0  0  0  0  0  0  0  0
   -1.3620    0.6510   -0.8230 H   0  0  0  0  0  0  0  0  0  0  0  0
   -0.2670    0.2650   -3.4950 H   0  0  0  0  0  0  0  0  0  0  0  0
   -0.3230   -0.6210   -1.8790 H   0  0  0  0  0  0  0  0  0  0  0  0
    3.1630   -0.4390   -0.0510 H   0  0  0  0  0  0  0  0  0  0  0  0
    4.2310   -1.7170   -0.5180 H   0  0  0  0  0  0  0  0  0  0  0  0
    1.6200   -2.0810   -1.7480 C   0  0  0  0  0  0  0  0  0  0  0  0
    0.2160   -2.7890   -2.3980 C   0  0  2  0  0  0  0  0  0  0  0  0
    0.9070   -2.9380   -3.8390 C   0  0  0  0  0  0  0  0  0  0  0  0
    1.0240   -1.9220   -4.2770 H   0  0  0  0  0  0  0  0  0  0  0  0
    0.4560   -3.5320   -4.6480 H   0  0  0  0  0  0  0  0  0  0  0  0
    1.9300   -3.2850   -3.8400 H   0  0  0  0  0  0  0  0  0  0  0  0
   -1.4870   -2.2050   -2.7920 C   0  0  0  0  0  0  0  0  0  0  0  0
   -1.5860   -2.2530   -3.9780 O   0  0  0  0  0  0  0  0  0  0  0  0
   -2.7490   -1.6280   -2.0380 O   0  0  0  0  0  0  0  0  0  0  0  0
   -4.3370   -1.5490   -1.8780 C   0  0  0  0  0  0  0  0  0  0  0  0
   -5.7040   -0.5910   -0.7820 C   0  0  0  0  0  0  0  0  0  0  0  0
   -6.1180   -0.2180    1.0170 N   0  0  0  0  0  0  0  0  0  0  0  0
   -5.2980    0.6480    2.0050 C   0  0  0  0  0  0  0  0  0  0  0  0
   -4.4100    0.1450    2.4590 H   0  0  0  0  0  0  0  0  0  0  0  0
   -5.8470    0.9800    2.9220 H   0  0  0  0  0  0  0  0  0  0  0  0
   -5.8200    0.9550    2.9480 H   0  0  0  0  0  0  0  0  0  0  0  0
   -7.1470    0.8250    0.6700 C   0  0  0  0  0  0  0  0  0  0  0  0
   -6.8200    1.3930   -0.2150 H   0  0  0  0  0  0  0  0  0  0  0  0
   -7.1450    1.7970    1.2110 H   0  0  0  0  0  0  0  0  0  0  0  0
   -8.0950    0.4510    0.2670 H   0  0  0  0  0  0  0  0  0  0  0  0
   -6.5580   -1.1970    2.3710 C   0  0  0  0  0  0  0  0  0  0  0  0
   -5.6530   -2.0380    3.5650 C   0  0  0  0  0  0  0  0  0  0  0  0
   -6.0660   -3.2260    4.6240 C   0  0  0  0  0  0  0  0  0  0  0  0
   -7.6180   -3.2020    5.6150 S   0  0  0  0  0  6  0  0  0  0  0  0
   -8.0220   -1.5680    5.9100 O   0  0  0  0  0  0  0  0  0  0  0  0
   -7.3370   -4.0210    7.1050 O   0  0  0  0  0  0  0  0  0  0  0  0
   -8.9100   -4.0180    4.8310 O   0  0  0  0  0  0  0  0  0  0  0  0
   -5.2480   -3.3850    5.3700 H   0  0  0  0  0  0  0  0  0  0  0  0
   -5.9550   -4.2650    4.2550 H   0  0  0  0  0  0  0  0  0  0  0  0
   -4.8630   -2.6520    3.1770 H   0  0  0  0  0  0  0  0  0  0  0  0
   -5.1580   -1.3000    4.2280 H   0  0  0  0  0  0  0  0  0  0  0  0
   -7.3180   -0.6980    3.0150 H   0  0  0  0  0  0  0  0  0  0  0  0
   -7.3210   -0.7000    3.0130 H   0  0  0  0  0  0  0  0  0  0  0  0
   -6.4020   -0.1000   -1.4770 H   0  0  0  0  0  0  0  0  0  0  0  0
   -6.3310   -1.3520   -1.1650 H   0  0  0  0  0  0  0  0  0  0  0  0
   -4.7600   -1.6600   -2.8990 H   0  0  0  0  0  0  0  0  0  0  0  0
   -4.7610   -1.6620   -2.8990 H   0  0  0  0  0  0  0  0  0  0  0  0
    1.2780   -1.8470   -0.7880 H   0  0  0  0  0  0  0  0  0  0  0  0
    2.3850   -2.8720   -1.6200 H   0  0  0  0  0  0  0  0  0  0  0  0
    0.2480   -4.1270   -1.3350 C   0  0  0  0  0  0  0  0  0  0  0  0
   -0.7260   -5.3880   -0.9810 C   0  0  2  0  0  0  0  0  0  0  0  0
   -0.2200   -5.6170   -2.5620 C   0  0  0  0  0  0  0  0  0  0  0  0
   -0.4850   -4.9460   -3.3890 H   0  0  0  0  0  0  0  0  0  0  0  0
   -0.4870   -4.9410   -3.3840 H   0  0  0  0  0  0  0  0  0  0  0  0
    0.8040   -5.8310   -2.8420 H   0  0  0  0  0  0  0  0  0  0  0  0
   -1.1410   -5.1390    0.6360 C   0  0  0  0  0  0  0  0  0  0  0  0
   -0.2750   -4.5400    1.2020 O   0  0  0  0  0  0  0  0  0  0  0  0
   -2.4340   -5.2790    1.4340 O   0  0  0  0  0  0  0  0  0  0  0  0
   -3.9440   -5.2250    1.6260 C   0  0  0  0  0  0  0  0  0  0  0  0
   -5.1290   -6.3240    2.0000 C   0  0  0  0  0  0  0  0  0  0  0  0
   -6.6970   -6.0900    1.8700 N   0  0  0  0  0  0  0  0  0  0  0  0
   -7.3480   -4.9580    2.5740 C   0  0  0  0  0  0  0  0  0  0  0  0
   -7.0030   -3.9670    2.2930 H   0  0  0  0  0  0  0  0  0  0  0  0
   -8.4750   -4.9720    2.5500 H   0  0  0  0  0  0  0  0  0  0  0  0
   -7.0030   -3.9670    2.2930 H   0  0  0  0  0  0  0  0  0  0  0  0
   -7.2650   -6.0840    0.4690 C   0  0  0  0  0  0  0  0  0  0  0  0
   -8.3790   -6.0110    0.4850 H   0  0  0  0  0  0  0  0  0  0  0  0
   -7.0260   -5.2260   -0.1690 H   0  0  0  0  0  0  0  0  0  0  0  0
   -7.1310   -7.0370   -0.0740 H   0  0  0  0  0  0  0  0  0  0  0  0
   -7.3960   -7.2530    2.5290 C   0  0  0  0  0  0  0  0  0  0  0  0
   -7.3660   -7.2620    4.1010 C   0  0  0  0  0  0  0  0  0  0  0  0
   -8.2620   -8.3780    4.6580 C   0  0  0  0  0  0  0  0  0  0  0  0
   -9.0490   -7.9450    6.2550 S   0  0  0  0  0  6  0  0  0  0  0  0
   -7.9850   -7.0750    7.2820 O   0  0  0  0  0  0  0  0  0  0  0  0
   -9.5460   -9.4060    7.0030 O   0  0  0  0  0  0  0  0  0  0  0  0
  -10.4310   -6.9850    5.8980 O   0  0  0  0  0  0  0  0  0  0  0  0
   -7.6920   -9.3270    4.7130 H   0  0  0  0  0  0  0  0  0  0  0  0
   -9.1300   -8.5300    3.9860 H   0  0  0  0  0  0  0  0  0  0  0  0
   -6.3440   -7.3390    4.5170 H   0  0  0  0  0  0  0  0  0  0  0  0
   -7.7930   -6.3180    4.4910 H   0  0  0  0  0  0  0  0  0  0  0  0
   -7.0460   -8.2120    2.1010 H   0  0  0  0  0  0  0  0  0  0  0  0
   -8.4960   -7.2120    2.2900 H   0  0  0  0  0  0  0  0  0  0  0  0
   -4.9320   -7.2360    1.4150 H   0  0  0  0  0  0  0  0  0  0  0  0
   -4.8950   -6.5810    3.0420 H   0  0  0  0  0  0  0  0  0  0  0  0
   -4.3100   -4.9060    0.7400 H   0  0  0  0  0  0  0  0  0  0  0  0
   -4.1110   -4.4100    2.3290 H   0  0  0  0  0  0  0  0  0  0  0  0
    1.2670   -4.5310   -1.2230 H   0  0  0  0  0  0  0  0  0  0  0  0
    1.2820   -4.5200   -1.2730 H   0  0  0  0  0  0  0  0  0  0  0  0
   -1.0680   -6.9370   -0.8970 C   0  0  0  0  0  0  0  0  0  0  0  0
   -2.2580   -7.3430   -0.0190 C   0  0  1  0  0  0  0  0  0  0  0  0
   -2.7530   -8.7960   -0.2550 C   0  0  0  0  0  0  0  0  0  0  0  0
   -1.9590   -9.5470   -0.0440 H   0  0  0  0  0  0  0  0  0  0  0  0
   -3.1100   -8.9930   -1.2860 H   0  0  0  0  0  0  0  0  0  0  0  0
   -3.5910   -8.9830    0.4490 H   0  0  0  0  0  0  0  0  0  0  0  0
   -1.5300   -7.5710    1.5170 C   0  0  0  0  0  0  0  0  0  0  0  0
   -0.5130   -8.2520    1.5370 O   0  0  0  0  0  0  0  0  0  0  0  0
   -1.8460   -6.9560    2.7480 O   0  0  0  0  0  0  0  0  0  0  0  0
   -0.9440   -6.2130    3.5880 C   0  0  0  0  0  0  0  0  0  0  0  0
   -1.6400   -5.2700    4.6240 C   0  0  0  0  0  0  0  0  0  0  0  0
   -0.6800   -4.4590    5.3300 O   0  0  0  0  0  0  0  0  0  0  0  0
   -0.8860   -3.0420    5.2340 C   0  0  0  0  0  0  0  0  0  0  0  0
   -2.0240   -2.5280    6.1500 C   0  0  0  0  0  0  0  0  0  0  0  0
   -2.2260   -0.9840    6.1410 C   0  0  0  0  0  0  0  0  0  0  0  0
   -1.9510   -0.3800    7.3960 O   0  0  0  0  0  0  0  0  0  0  0  0
   -0.6020    0.0130    7.5090 C   0  0  0  0  0  0  0  0  0  0  0  0
   -0.3880    0.7310    8.8550 C   0  0  0  0  0  0  0  0  0  0  0  0
   -0.7770   -0.1520   10.0550 C   0  0  0  0  0  0  0  0  0  0  0  0
   -0.4390    0.4710   11.2820 O   0  0  0  0  0  0  0  0  0  0  0  0
   -1.4240    1.4000   11.7070 C   0  0  0  0  0  0  0  0  0  0  0  0
   -0.7700    2.7620   11.9610 C   0  0  0  0  0  0  0  0  0  0  0  0
    0.3080    2.7130   13.0490 C   0  0  0  0  0  0  0  0  0  0  0  0
   -0.2780    2.3540   14.2830 O   0  0  0  0  0  0  0  0  0  0  0  0
    0.7240    2.2910   15.2780 C   0  0  0  0  0  0  0  0  0  0  0  0
    0.0800    2.0520   16.6460 C   0  0  0  0  0  0  0  0  0  0  0  0
   -0.6830    0.7220   16.6980 C   0  0  0  0  0  0  0  0  0  0  0  0
   -1.1860    0.4970   18.0020 O   0  0  0  0  0  0  0  0  0  0  0  0
   -2.5280    0.9210   18.0940 C   0  0  0  0  0  0  0  0  0  0  0  0
   -2.8580    0.8090   19.1470 H   0  0  0  0  0  0  0  0  0  0  0  0
   -2.6380    1.9960   17.8320 H   0  0  0  0  0  0  0  0  0  0  0  0
   -3.1900    0.2810   17.4710 H   0  0  0  0  0  0  0  0  0  0  0  0
    0.0160   -0.1070   16.4600 H   0  0  0  0  0  0  0  0  0  0  0  0
   -1.4750    0.6870   15.9110 H   0  0  0  0  0  0  0  0  0  0  0  0
   -0.6100    2.8920   16.8750 H   0  0  0  0  0  0  0  0  0  0  0  0
    0.8810    2.0360   17.4180 H   0  0  0  0  0  0  0  0  0  0  0  0
    1.2790    3.2560   15.3440 H   0  0  0  0  0  0  0  0  0  0  0  0
    1.4340    1.4590   15.0670 H   0  0  0  0  0  0  0  0  0  0  0  0
    0.7520    3.7330   13.1180 H   0  0  0  0  0  0  0  0  0  0  0  0
    1.0930    1.9820   12.7470 H   0  0  0  0  0  0  0  0  0  0  0  0
   -0.3110    3.1160   11.0120 H   0  0  0  0  0  0  0  0  0  0  0  0
   -1.5500    3.4950   12.2640 H   0  0  0  0  0  0  0  0  0  0  0  0
   -1.9010    1.0240   12.6390 H   0  0  0  0  0  0  0  0  0  0  0  0
   -2.2430    1.5590   10.9660 H   0  0  0  0  0  0  0  0  0  0  0  0
   -1.8510   -0.4480   10.0200 H   0  0  0  0  0  0  0  0  0  0  0  0
   -0.2000   -1.0980    9.9980 H   0  0  0  0  0  0  0  0  0  0  0  0
   -0.9880    1.6670    8.8780 H   0  0  0  0  0  0  0  0  0  0  0  0
    0.6860    1.0090    8.9440 H   0  0  0  0  0  0  0  0  0  0  0  0
    0.0610   -0.8780    7.4760 H   0  0  0  0  0  0  0  0  0  0  0  0
   -0.3250    0.7310    6.7030 H   0  0  0  0  0  0  0  0  0  0  0  0
   -1.7790   -0.4590    5.2650 H   0  0  0  0  0  0  0  0  0  0  0  0
   -3.3150   -0.8100    6.0010 H   0  0  0  0  0  0  0  0  0  0  0  0
   -2.9530   -2.9940    5.7670 H   0  0  0  0  0  0  0  0  0  0  0  0
   -1.8830   -2.8710    7.1970 H   0  0  0  0  0  0  0  0  0  0  0  0
   -1.0420   -2.7120    4.1810 H   0  0  0  0  0  0  0  0  0  0  0  0
    0.0560   -2.5380    5.5600 H   0  0  0  0  0  0  0  0  0  0  0  0
   -2.4070   -4.6430    4.1130 H   0  0  0  0  0  0  0  0  0  0  0  0
   -2.1590   -5.9100    5.3580 H   0  0  0  0  0  0  0  0  0  0  0  0
   -0.3900   -5.4720    3.0540 H   0  0  0  0  0  0  0  0  0  0  0  0
   -0.1330   -6.8320    4.0020 H   0  0  0  0  0  0  0  0  0  0  0  0
   -1.4920   -7.3440   -1.8150 H   0  0  0  0  0  0  0  0  0  0  0  0
   -0.1900   -7.4760   -0.5680 H   0  0  0  0  0  0  0  0  0  0  0  0
   -3.4060   -6.3010   -0.8180 C   0  0  0  0  0  0  0  0  0  0  0  0
   -3.2320   -4.7050   -1.5840 C   0  0  1  0  0  0  0  0  0  0  0  0
   -4.6660   -4.3290   -2.1770 C   0  0  0  0  0  0  0  0  0  0  0  0
   -5.4400   -3.7170   -1.7730 H   0  0  0  0  0  0  0  0  0  0  0  0
   -5.2240   -5.2540   -2.3920 H   0  0  0  0  0  0  0  0  0  0  0  0
   -4.6480   -3.7910   -3.1570 H   0  0  0  0  0  0  0  0  0  0  0  0
   -2.4040   -3.3820   -0.5420 C   0  0  0  0  0  0  0  0  0  0  0  0
   -2.8840   -3.3850    0.4750 O   0  0  0  0  0  0  0  0  0  0  0  0
   -1.2840   -2.3950   -0.3250 O   0  0  0  0  0  0  0  0  0  0  0  0
   -0.7720   -1.6820    0.9360 C   0  0  0  0  0  0  0  0  0  0  0  0
    0.2770   -0.3620    1.0500 C   0  0  0  0  0  0  0  0  0  0  0  0
    0.5770    0.2350    2.3740 O   0  0  0  0  0  0  0  0  0  0  0  0
    1.8750    0.9360    2.4090 C   0  0  0  0  0  0  0  0  0  0  0  0
    1.9260    2.5070    2.3100 C   0  0  0  0  0  0  0  0  0  0  0  0
    3.2990    2.9670    1.7170 C   0  0  0  0  0  0  0  0  0  0  0  0
    4.4190    2.7550    2.5320 O   0  0  0  0  0  0  0  0  0  0  0  0
    4.3870    3.4900    3.7210 C   0  0  0  0  0  0  0  0  0  0  0  0
    5.0160    4.8670    3.5850 C   0  0  0  0  0  0  0  0  0  0  0  0
    4.2110    5.9100    2.7880 C   0  0  0  0  0  0  0  0  0  0  0  0
    4.7640    7.1950    2.9330 O   0  0  0  0  0  0  0  0  0  0  0  0
    5.9900    7.3320    2.2310 C   0  0  0  0  0  0  0  0  0  0  0  0
    7.1890    7.2340    3.1950 C   0  0  0  0  0  0  0  0  0  0  0  0
    6.9690    8.0930    4.4320 C   0  0  0  0  0  0  0  0  0  0  0  0
    6.8000    9.4190    4.0100 O   0  0  0  0  0  0  0  0  0  0  0  0
    6.4360   10.2280    5.1000 C   0  0  0  0  0  0  0  0  0  0  0  0
    6.4080   11.6690    4.6110 C   0  0  0  0  0  0  0  0  0  0  0  0
    5.3460   11.8700    3.5190 C   0  0  0  0  0  0  0  0  0  0  0  0
    5.3370   13.2190    3.0940 O   0  0  0  0  0  0  0  0  0  0  0  0
    6.1290   13.3720    1.9370 C   0  0  0  0  0  0  0  0  0  0  0  0
    6.2170   14.4540    1.7130 H   0  0  0  0  0  0  0  0  0  0  0  0
    7.1640   12.9890    2.0880 H   0  0  0  0  0  0  0  0  0  0  0  0
    5.6450   12.8860    1.0610 H   0  0  0  0  0  0  0  0  0  0  0  0
    4.3450   11.6360    3.9390 H   0  0  0  0  0  0  0  0  0  0  0  0
    5.4900   11.1520    2.6750 H   0  0  0  0  0  0  0  0  0  0  0  0
    7.4140   11.9180    4.2090 H   0  0  0  0  0  0  0  0  0  0  0  0
    6.1890   12.3430    5.4650 H   0  0  0  0  0  0  0  0  0  0  0  0
    7.1950   10.1550    5.9120 H   0  0  0  0  0  0  0  0  0  0  0  0
    5.4280    9.9500    5.4880 H   0  0  0  0  0  0  0  0  0  0  0  0
    7.8580    7.9960    5.0920 H   0  0  0  0  0  0  0  0  0  0  0  0
    6.0660    7.7150    4.9710 H   0  0  0  0  0  0  0  0  0  0  0  0
    7.3690    6.2050    3.5470 H   0  0  0  0  0  0  0  0  0  0  0  0
    8.1080    7.5470    2.6580 H   0  0  0  0  0  0  0  0  0  0  0  0
    5.9790    8.3420    1.7700 H   0  0  0  0  0  0  0  0  0  0  0  0
    6.1160    6.6240    1.3770 H   0  0  0  0  0  0  0  0  0  0  0  0
    4.1090    5.7010    1.7110 H   0  0  0  0  0  0  0  0  0  0  0  0
    3.1810    5.9460    3.2060 H   0  0  0  0  0  0  0  0  0  0  0  0
    6.0030    4.7120    3.1190 H   0  0  0  0  0  0  0  0  0  0  0  0
    5.1330    5.2590    4.6170 H   0  0  0  0  0  0  0  0  0  0  0  0
    3.4060    3.5200    4.2170 H   0  0  0  0  0  0  0  0  0  0  0  0
    5.0230    2.9200    4.4250 H   0  0  0  0  0  0  0  0  0  0  0  0
    3.5130    2.3370    0.8830 H   0  0  0  0  0  0  0  0  0  0  0  0
    3.3020    3.9450    1.2260 H   0  0  0  0  0  0  0  0  0  0  0  0
    1.6580    3.1470    3.1650 H   0  0  0  0  0  0  0  0  0  0  0  0
    1.1160    2.8280    1.6950 H   0  0  0  0  0  0  0  0  0  0  0  0
    2.5080    0.5890    1.5950 H   0  0  0  0  0  0  0  0  0  0  0  0
    2.4840    0.6480    3.2900 H   0  0  0  0  0  0  0  0  0  0  0  0
    1.1940   -0.6000    0.6280 H   0  0  0  0  0  0  0  0  0  0  0  0
   -0.0510    0.5240    0.5330 H   0  0  0  0  0  0  0  0  0  0  0  0
   -0.2630   -2.4030    1.5530 H   0  0  0  0  0  0  0  0  0  0  0  0
   -1.5990   -1.4650    1.6120 H   0  0  0  0  0  0  0  0  0  0  0  0
   -3.7090   -6.9200   -1.6810 H   0  0  0  0  0  0  0  0  0  0  0  0
   -4.4190   -6.4590   -0.4540 H   0  0  0  0  0  0  0  0  0  0  0  0
   -2.7910   -5.1050   -3.1040 C   0  0  0  0  0  0  0  0  0  0  0  0
   -2.9460   -5.8260   -4.5360 C   0  0  1  0  0  0  0  0  0  0  0  0
   -4.0680   -6.8860   -4.4770 C   0  0  0  0  0  0  0  0  0  0  0  0
   -3.8170   -7.7010   -3.7760 H   0  0  0  0  0  0  0  0  0  0  0  0
   -4.2340   -7.3240   -5.4830 H   0  0  0  0  0  0  0  0  0  0  0  0
   -5.0310   -6.4230   -4.1790 H   0  0  0  0  0  0  0  0  0  0  0  0
   -3.4130   -4.6910   -5.6030 C   0  0  0  0  0  0  0  0  0  0  0  0
   -4.4190   -4.8910   -6.2750 O   0  0  0  0  0  0  0  0  0  0  0  0
   -2.8310   -3.4480   -5.6030 O   0  0  0  0  0  0  0  0  0  0  0  0
   -3.1450   -2.3830   -6.4950 N   0  0  0  0  0  0  0  0  0  0  0  0
   -3.0870   -1.0860   -6.1180 C   0  0  0  0  0  0  0  0  0  0  0  0
   -2.8080   -0.6300   -5.0410 O   0  0  0  0  0  0  0  0  0  0  0  0
   -3.3920   -0.0910   -7.2080 C   0  0  0  0  0  0  0  0  0  0  0  0
   -4.2780    0.4750   -6.9000 H   0  0  0  0  0  0  0  0  0  0  0  0
   -2.5200    0.5690   -7.3660 H   0  0  0  0  0  0  0  0  0  0  0  0
   -3.6530   -1.0390   -8.3660 C   0  0  0  0  0  0  0  0  0  0  0  0
   -2.9120   -0.8370   -9.1770 H   0  0  0  0  0  0  0  0  0  0  0  0
   -4.6840   -0.8840   -8.7380 H   0  0  0  0  0  0  0  0  0  0  0  0
   -3.4740   -2.4280   -7.7460 C   0  0  0  0  0  0  0  0  0  0  0  0
   -3.5580   -3.4370   -8.4070 O   0  0  0  0  0  0  0  0  0  0  0  0
   -2.3920   -4.2030   -3.4440 H   0  0  0  0  0  0  0  0  0  0  0  0
   -2.3530   -5.9860   -2.8720 H   0  0  0  0  0  0  0  0  0  0  0  0
   -1.5300   -6.6450   -5.0180 C   0  0  0  0  0  0  0  0  0  0  0  0
   -0.4010   -7.9030   -4.5680 C   0  0  1  0  0  0  0  0  0  0  0  0
    0.5560   -7.8520   -5.8100 C   0  0  0  0  0  0  0  0  0  0  0  0
    1.1680   -6.9320   -5.8260 H   0  0  0  0  0  0  0  0  0  0  0  0
   -0.0520   -7.8580   -6.7460 H   0  0  0  0  0  0  0  0  0  0  0  0
    1.1810   -8.7280   -6.0210 H   0  0  0  0  0  0  0  0  0  0  0  0
    0.3190   -8.1310   -3.0450 C   0  0  0  0  0  0  0  0  0  0  0  0
   -0.2020   -8.9430   -2.2770 O   0  0  0  0  0  0  0  0  0  0  0  0
    1.5980   -7.8270   -2.6170 O   0  0  0  0  0  0  0  0  0  0  0  0
    2.0240   -7.5930   -1.2750 C   0  0  0  0  0  0  0  0  0  0  0  0
    3.1120   -8.5300   -0.5300 C   0  0  0  0  0  0  0  0  0  0  0  0
    4.0080   -8.0520    0.4930 O   0  0  0  0  0  0  0  0  0  0  0  0
    3.5100   -7.6850    1.7730 C   0  0  0  0  0  0  0  0  0  0  0  0
    3.6300   -8.7900    2.7830 C   0  0  0  0  0  0  0  0  0  0  0  0
    3.0400   -8.3600    4.1420 C   0  0  0  0  0  0  0  0  0  0  0  0
    4.0460   -7.9160    5.0390 O   0  0  0  0  0  0  0  0  0  0  0  0
    3.8310   -6.5900    5.4580 C   0  0  0  0  0  0  0  0  0  0  0  0
    4.7860   -6.2320    6.5970 C   0  0  0  0  0  0  0  0  0  0  0  0
    6.2550   -6.4970    6.1800 C   0  0  0  0  0  0  0  0  0  0  0  0
    7.1850   -5.7880    6.9730 O   0  0  0  0  0  0  0  0  0  0  0  0
    7.2660   -6.3100    8.2810 C   0  0  0  0  0  0  0  0  0  0  0  0
    6.9620   -5.1920    9.2850 C   0  0  0  0  0  0  0  0  0  0  0  0
    8.0410   -4.1050    9.2870 C   0  0  0  0  0  0  0  0  0  0  0  0
    9.2630   -4.7130    9.6390 O   0  0  0  0  0  0  0  0  0  0  0  0
   10.2640   -3.7440    9.8360 C   0  0  0  0  0  0  0  0  0  0  0  0
   11.5530   -4.4610   10.2420 C   0  0  0  0  0  0  0  0  0  0  0  0
   12.0480   -5.4080    9.1400 C   0  0  0  0  0  0  0  0  0  0  0  0
   13.2590   -6.0260    9.5350 O   0  0  0  0  0  0  0  0  0  0  0  0
   13.0070   -7.3090   10.0660 C   0  0  0  0  0  0  0  0  0  0  0  0
   13.9570   -7.7110   10.4750 H   0  0  0  0  0  0  0  0  0  0  0  0
   12.2820   -7.2710   10.9100 H   0  0  0  0  0  0  0  0  0  0  0  0
   12.6660   -8.0060    9.2700 H   0  0  0  0  0  0  0  0  0  0  0  0
   12.2500   -4.8210    8.2190 H   0  0  0  0  0  0  0  0  0  0  0  0
   11.2560   -6.1450    8.8580 H   0  0  0  0  0  0  0  0  0  0  0  0
   11.3610   -5.0400   11.1720 H   0  0  0  0  0  0  0  0  0  0  0  0
   12.3410   -3.7070   10.4540 H   0  0  0  0  0  0  0  0  0  0  0  0
    9.9840   -3.0590   10.6690 H   0  0  0  0  0  0  0  0  0  0  0  0
   10.4490   -3.1610    8.9050 H   0  0  0  0  0  0  0  0  0  0  0  0
    7.7400   -3.3440   10.0430 H   0  0  0  0  0  0  0  0  0  0  0  0
    8.1070   -3.6330    8.2800 H   0  0  0  0  0  0  0  0  0  0  0  0
    5.9700   -4.7460    9.0520 H   0  0  0  0  0  0  0  0  0  0  0  0
    6.9180   -5.6340   10.3020 H   0  0  0  0  0  0  0  0  0  0  0  0
    8.2840   -6.7240    8.4410 H   0  0  0  0  0  0  0  0  0  0  0  0
    6.5600   -7.1480    8.4720 H   0  0  0  0  0  0  0  0  0  0  0  0
    6.4760   -7.5850    6.1380 H   0  0  0  0  0  0  0  0  0  0  0  0
    6.4240   -6.1550    5.1470 H   0  0  0  0  0  0  0  0  0  0  0  0
    4.5400   -6.8040    7.5140 H   0  0  0  0  0  0  0  0  0  0  0  0
    4.6170   -5.1660    6.8550 H   0  0  0  0  0  0  0  0  0  0  0  0
    4.0800   -5.9230    4.6180 H   0  0  0  0  0  0  0  0  0  0  0  0
    2.7890   -6.4110    5.8200 H   0  0  0  0  0  0  0  0  0  0  0  0
    2.1790   -7.6600    3.9980 H   0  0  0  0  0  0  0  0  0  0  0  0
    2.6120   -9.2650    4.6030 H   0  0  0  0  0  0  0  0  0  0  0  0
    3.0220   -9.6020    2.3550 H   0  0  0  0  0  0  0  0  0  0  0  0
    4.6870   -9.1310    2.8980 H   0  0  0  0  0  0  0  0  0  0  0  0
    2.4750   -7.2960    1.6970 H   0  0  0  0  0  0  0  0  0  0  0  0
    4.1560   -6.8540    2.1680 H   0  0  0  0  0  0  0  0  0  0  0  0
    2.6950   -9.5190   -0.2720 H   0  0  0  0  0  0  0  0  0  0  0  0
    3.9060   -8.6890   -1.2280 H   0  0  0  0  0  0  0  0  0  0  0  0
    2.3890   -6.5850   -1.3300 H   0  0  0  0  0  0  0  0  0  0  0  0
    2.3890   -6.5850   -1.3300 H   0  0  0  0  0  0  0  0  0  0  0  0
   -1.8930   -7.0080   -6.0060 H   0  0  0  0  0  0  0  0  0  0  0  0
   -0.8770   -5.7990   -5.3180 H   0  0  0  0  0  0  0  0  0  0  0  0
    6.5790    1.6930    0.7000 C   0  0  0  0  0  0  0  0  0  0  0  0
    7.2370    2.1460    1.8110 C   0  0  0  0  0  0  0  0  0  0  0  0
    8.1200    3.3620    1.6140 C   0  0  0  0  0  0  0  0  0  0  0  0
    7.5150    4.1910    1.1910 H   0  0  0  0  0  0  0  0  0  0  0  0
    8.5700    3.7370    2.5570 H   0  0  0  0  0  0  0  0  0  0  0  0
    8.9510    3.1160    0.9220 H   0  0  0  0  0  0  0  0  0  0  0  0
    7.1530    1.5920    3.2030 C   0  0  0  0  0  0  0  0  0  0  0  0
    7.7260    2.1860    4.1090 O   0  0  0  0  0  0  0  0  0  0  0  0
    6.4880    0.4510    3.4980 O   0  0  0  0  0  0  0  0  0  0  0  0
    6.3330    0.0150    4.8040 C   0  0  0  0  0  0  0  0  0  0  0  0
    5.6940   -1.3600    4.8560 C   0  0  0  0  0  0  0  0  0  0  0  0
    6.5030   -2.4850    4.2680 N   0  0  0  0  0  0  0  0  0  0  0  0
    6.7000   -2.2910    2.8030 C   0  0  0  0  0  0  0  0  0  0  0  0
    6.7280   -3.2450    2.2250 H   0  0  0  0  0  0  0  0  0  0  0  0
    7.5580   -1.6780    2.5090 H   0  0  0  0  0  0  0  0  0  0  0  0
    5.9320   -1.6370    2.4170 H   0  0  0  0  0  0  0  0  0  0  0  0
    5.6520   -3.6770    4.4870 C   0  0  0  0  0  0  0  0  0  0  0  0
    5.6970   -3.9520    5.5490 H   0  0  0  0  0  0  0  0  0  0  0  0
    5.9590   -4.5300    3.8460 H   0  0  0  0  0  0  0  0  0  0  0  0
    4.5790   -3.4970    4.3250 H   0  0  0  0  0  0  0  0  0  0  0  0
    7.7910   -2.7260    5.0180 C   0  0  0  0  0  0  0  0  0  0  0  0
    9.0780   -2.1370    4.3950 C   0  0  0  0  0  0  0  0  0  0  0  0
    9.6790   -3.0250    3.2740 C   0  0  0  0  0  0  0  0  0  0  0  0
   10.6750   -4.3930    3.9520 S   0  0  0  0  0  6  0  0  0  0  0  0
    9.7190   -5.4810    4.8730 O   0  0  0  0  0  0  0  0  0  0  0  0
   11.3880   -5.2200    2.6290 O   0  0  0  0  0  0  0  0  0  0  0  0
   11.8930   -3.6820    4.9310 O   0  0  0  0  0  0  0  0  0  0  0  0
    8.9400   -3.4460    2.5660 H   0  0  0  0  0  0  0  0  0  0  0  0
   10.3780   -2.4080    2.6760 H   0  0  0  0  0  0  0  0  0  0  0  0
    9.8590   -2.0220    5.1720 H   0  0  0  0  0  0  0  0  0  0  0  0
    8.8700   -1.1070    4.0440 H   0  0  0  0  0  0  0  0  0  0  0  0
    7.6830   -2.3150    6.0460 H   0  0  0  0  0  0  0  0  0  0  0  0
    7.9840   -3.8070    5.1790 H   0  0  0  0  0  0  0  0  0  0  0  0
    5.4590   -1.5800    5.9240 H   0  0  0  0  0  0  0  0  0  0  0  0
    4.7070   -1.2680    4.3360 H   0  0  0  0  0  0  0  0  0  0  0  0
    7.3010   -0.0170    5.3440 H   0  0  0  0  0  0  0  0  0  0  0  0
    5.6630    0.7240    5.3370 H   0  0  0  0  0  0  0  0  0  0  0  0
    6.7710    2.2440   -0.2130 H   0  0  0  0  0  0  0  0  0  0  0  0
   -0.9870   -9.2820   -4.6460 C   0  0  0  0  0  0  0  0  0  0  0  0
   -0.2140  -10.3950   -4.2980 C   0  0  0  0  0  0  0  0  0  0  0  0
   -1.1080  -11.4560   -3.6300 C   0  0  0  0  0  0  0  0  0  0  0  0
   -2.2080  -11.2690   -3.7360 H   0  0  0  0  0  0  0  0  0  0  0  0
   -0.8880  -12.5070   -3.8550 H   0  0  0  0  0  0  0  0  0  0  0  0
   -0.9830  -11.3170   -2.5240 H   0  0  0  0  0  0  0  0  0  0  0  0
    1.3790  -10.4240   -4.0440 C   0  0  0  0  0  0  0  0  0  0  0  0
    1.8000  -11.4290   -3.4910 O   0  0  0  0  0  0  0  0  0  0  0  0
    2.3040   -9.3440   -4.2500 O   0  0  0  0  0  0  0  0  0  0  0  0
    3.5890   -9.1460   -3.6230 C   0  0  0  0  0  0  0  0  0  0  0  0
    4.4310   -7.6620   -3.4130 C   0  0  0  0  0  0  0  0  0  0  0  0
    4.4160   -6.1380   -2.8960 N   0  0  0  0  0  0  0  0  0  0  0  0
    3.3560   -5.4820   -3.6680 C   0  0  0  0  0  0  0  0  0  0  0  0
    2.5730   -6.1870   -3.9650 H   0  0  0  0  0  0  0  0  0  0  0  0
    2.8480   -4.7820   -3.0160 H   0  0  0  0  0  0  0  0  0  0  0  0
    3.6850   -5.1020   -4.6680 H   0  0  0  0  0  0  0  0  0  0  0  0
    5.7290   -5.6440   -3.4880 C   0  0  0  0  0  0  0  0  0  0  0  0
    6.6000   -6.0460   -2.9140 H   0  0  0  0  0  0  0  0  0  0  0  0
    5.8430   -4.5310   -3.4990 H   0  0  0  0  0  0  0  0  0  0  0  0
    5.8980   -5.9180   -4.5490 H   0  0  0  0  0  0  0  0  0  0  0  0
    4.5820   -5.3790   -1.4770 C   0  0  0  0  0  0  0  0  0  0  0  0
    3.6810   -4.9110   -0.1630 C   0  0  0  0  0  0  0  0  0  0  0  0
    2.4880   -4.2660    0.7240 C   0  0  0  0  0  0  0  0  0  0  0  0
    2.7440   -3.5270    2.3290 S   0  0  0  0  0  6  0  0  0  0  0  0
    4.2450   -2.8760    2.1250 O   0  0  0  0  0  0  0  0  0  0  0  0
    1.7240   -2.2110    2.7250 O   0  0  0  0  0  0  0  0  0  0  0  0
    2.5080   -4.6650    3.5740 O   0  0  0  0  0  0  0  0  0  0  0  0
    1.9840   -3.3890    0.3600 H   0  0  0  0  0  0  0  0  0  0  0  0
    1.7890   -5.0830    0.9640 H   0  0  0  0  0  0  0  0  0  0  0  0
    3.6900   -5.8240    0.3470 H   0  0  0  0  0  0  0  0  0  0  0  0
    3.6890   -5.8240    0.3460 H   0  0  0  0  0  0  0  0  0  0  0  0
    5.4610   -5.8500   -0.9740 H   0  0  0  0  0  0  0  0  0  0  0  0
    4.8980   -4.3290   -1.6770 H   0  0  0  0  0  0  0  0  0  0  0  0
    5.3850   -8.0670   -3.0110 H   0  0  0  0  0  0  0  0  0  0  0  0
    4.5690   -7.5430   -4.5130 H   0  0  0  0  0  0  0  0  0  0  0  0
    3.5960   -9.8200   -2.7620 H   0  0  0  0  0  0  0  0  0  0  0  0
    4.2920   -9.7300   -4.2550 H   0  0  0  0  0  0  0  0  0  0  0  0
   -2.0770   -9.3120   -4.6660 H   0  0  0  0  0  0  0  0  0  0  0  0
  2  1  1  1
  1 38  1  0
  1 39  1  0
  1365  1  0
  2  3  1  0
  2  7  1  0
  2 40  1  0
  3  4  1  0
  3  5  1  0
  3  6  1  0
  7  8  2  0
  7  9  1  0
  9 10  1  0
 10 11  1  0
 10 36  1  0
 10 37  1  0
 11 12  1  0
 11 34  1  0
 11 35  1  0
 12 13  1  0
 12 17  1  0
 12 21  1  0
 13 14  1  0
 13 15  1  0
 13 16  1  0
 17 18  1  0
 17 19  1  0
 17 20  1  0
 21 22  1  0
 21 32  1  0
 21 33  1  0
 22 23  1  0
 22 30  1  0
 22 31  1  0
 23 24  1  0
 23 28  1  0
 23 29  1  0
 24 25  2  0
 24 26  2  0
 24 27  1  0
 41 40  1  1
 40 77  1  0
 40 78  1  0
 41 42  1  0
 41 46  1  0
 41 79  1  0
 42 43  1  0
 42 44  1  0
 42 45  1  0
 46 47  2  0
 46 48  1  0
 48 49  1  0
 49 50  1  0
 49 75  1  0
 49 76  1  0
 50 51  1  0
 50 73  1  0
 50 74  1  0
 51 52  1  0
 51 56  1  0
 51 60  1  0
 52 53  1  0
 52 54  1  0
 52 55  1  0
 56 57  1  0
 56 58  1  0
 56 59  1  0
 60 61  1  0
 60 71  1  0
 60 72  1  0
 61 62  1  0
 61 69  1  0
 61 70  1  0
 62 63  1  0
 62 67  1  0
 62 68  1  0
 63 64  2  0
 63 65  2  0
 63 66  1  0
 80 79  1  1
 79116  1  0
 79117  1  0
 80 81  1  0
 80 85  1  0
 80118  1  0
 81 82  1  0
 81 83  1  0
 81 84  1  0
 85 86  2  0
 85 87  1  0
 87 88  1  0
 88 89  1  0
 88114  1  0
 88115  1  0
 89 90  1  0
 89112  1  0
 89113  1  0
 90 91  1  0
 90 95  1  0
 90 99  1  0
 91 92  1  0
 91 93  1  0
 91 94  1  0
 95 96  1  0
 95 97  1  0
 95 98  1  0
 99100  1  0
 99110  1  0
 99111  1  0
100101  1  0
100108  1  0
100109  1  0
101102  1  0
101106  1  0
101107  1  0
102103  2  0
102104  2  0
102105  1  0
119118  1  6
118155  1  0
118156  1  0
119120  1  0
119124  1  0
119157  1  0
120121  1  0
120122  1  0
120123  1  0
124125  2  0
124126  1  0
126127  1  0
127128  1  0
127153  1  0
127154  1  0
128129  1  0
128151  1  0
128152  1  0
129130  1  0
129134  1  0
129138  1  0
130131  1  0
130132  1  0
130133  1  0
134135  1  0
134136  1  0
134137  1  0
138139  1  0
138149  1  0
138150  1  0
139140  1  0
139147  1  0
139148  1  0
140141  1  0
140145  1  0
140146  1  0
141142  2  0
141143  2  0
141144  1  0
158157  1  6
157217  1  0
157218  1  0
158159  1  0
158163  1  0
158219  1  0
159160  1  0
159161  1  0
159162  1  0
163164  2  0
163165  1  0
165166  1  0
166167  1  0
166215  1  0
166216  1  0
167168  1  0
167213  1  0
167214  1  0
168169  1  0
169170  1  0
169211  1  0
169212  1  0
170171  1  0
170209  1  0
170210  1  0
171172  1  0
171207  1  0
171208  1  0
172173  1  0
173174  1  0
173205  1  0
173206  1  0
174175  1  0
174203  1  0
174204  1  0
175176  1  0
175201  1  0
175202  1  0
176177  1  0
177178  1  0
177199  1  0
177200  1  0
178179  1  0
178197  1  0
178198  1  0
179180  1  0
179195  1  0
179196  1  0
180181  1  0
181182  1  0
181193  1  0
181194  1  0
182183  1  0
182191  1  0
182192  1  0
183184  1  0
183189  1  0
183190  1  0
184185  1  0
185186  1  0
185187  1  0
185188  1  0
220219  1  1
219279  1  0
219280  1  0
220221  1  0
220225  1  0
220281  1  0
221222  1  0
221223  1  0
221224  1  0
225226  2  0
225227  1  0
227228  1  0
228229  1  0
228277  1  0
228278  1  0
229230  1  0
229275  1  0
229276  1  0
230231  1  0
231232  1  0
231273  1  0
231274  1  0
232233  1  0
232271  1  0
232272  1  0
233234  1  0
233269  1  0
233270  1  0
234235  1  0
235236  1  0
235267  1  0
235268  1  0
236237  1  0
236265  1  0
236266  1  0
237238  1  0
237263  1  0
237264  1  0
238239  1  0
239240  1  0
239261  1  0
239262  1  0
240241  1  0
240259  1  0
240260  1  0
241242  1  0
241257  1  0
241258  1  0
242243  1  0
243244  1  0
243255  1  0
243256  1  0
244245  1  0
244253  1  0
244254  1  0
245246  1  0
245251  1  0
245252  1  0
246247  1  0
247248  1  0
247249  1  0
247250  1  0
282281  1  1
281301  1  0
281302  1  0
282283  1  0
282287  1  0
282303  1  0
283284  1  0
283285  1  0
283286  1  0
287288  2  0
287289  1  0
289290  1  0
290291  1  0
290299  1  0
291292  2  0
291293  1  0
293294  1  0
293295  1  0
293296  1  0
296297  1  0
296298  1  0
296299  1  0
299300  2  0
304303  1  1
303363  1  0
303364  1  0
304305  1  0
304309  1  0
304403  1  0
305306  1  0
305307  1  0
305308  1  0
309310  2  0
309311  1  0
311312  1  0
312313  1  0
312361  1  0
312362  1  0
313314  1  0
313359  1  0
313360  1  0
314315  1  0
315316  1  0
315357  1  0
315358  1  0
316317  1  0
316355  1  0
316356  1  0
317318  1  0
317353  1  0
317354  1  0
318319  1  0
319320  1  0
319351  1  0
319352  1  0
320321  1  0
320349  1  0
320350  1  0
321322  1  0
321347  1  0
321348  1  0
322323  1  0
323324  1  0
323345  1  0
323346  1  0
324325  1  0
324343  1  0
324344  1  0
325326  1  0
325341  1  0
325342  1  0
326327  1  0
327328  1  0
327339  1  0
327340  1  0
328329  1  0
328337  1  0
328338  1  0
329330  1  0
329335  1  0
329336  1  0
330331  1  0
331332  1  0
331333  1  0
331334  1  0
365366  2  0
365402  1  0
366367  1  0
366371  1  0
367368  1  0
367369  1  0
367370  1  0
371372  2  0
371373  1  0
373374  1  0
374375  1  0
374400  1  0
374401  1  0
375376  1  0
375398  1  0
375399  1  0
376377  1  0
376381  1  0
376385  1  0
377378  1  0
377379  1  0
377380  1  0
381382  1  0
381383  1  0
381384  1  0
385386  1  0
385396  1  0
385397  1  0
386387  1  0
386394  1  0
386395  1  0
387388  1  0
387392  1  0
387393  1  0
388389  2  0
388390  2  0
388391  1  0
403404  2  0
403440  1  0
404405  1  0
404409  1  0
405406  1  0
405407  1  0
405408  1  0
409410  2  0
409411  1  0
411412  1  0
412413  1  0
412438  1  0
412439  1  0
413414  1  0
413436  1  0
413437  1  0
414415  1  0
414419  1  0
414423  1  0
415416  1  0
415417  1  0
415418  1  0
419420  1  0
419421  1  0
419422  1  0
423424  1  0
423434  1  0
423435  1  0
424425  1  0
424432  1  0
424433  1  0
425426  1  0
425430  1  0
425431  1  0
426427  2  0
426428  2  0
426429  1  0
M  CHG  8  12   1  27  -1  51   1  66  -1  90   1 105  -1 129   1 144  -1
M  CHG  4 376   1 391  -1 414   1 429  -1
M  END
>  <charge_method>  (1) 
NAGL

>  <metadata>  (1) 
{0: {'residue_name': 'SBM', 'residue_number': 7, 'insertion_code': ' ', 'chain_id': '1', 'match_info': '{"7": ["SBMA_2-site", 1]}', 'substructure_query_id': 1, 'extended_name': 'SBMA_2-site'}, 1: {'residue_name': 'SBM', 'residue_number': 7, 'insertion_code': ' ', 'chain_id': '1', 'match_info': '{"1": ["SBMA_2-site", 2], "7": ["SBMA_2-site", 2]}', 'substructure_query_id': 2, 'extended_name': 'SBMA_2-site'}, 2: {'residue_name': 'SBM', 'residue_number': 7, 'insertion_code': ' ', 'chain_id': '1', 'match_info': '{"1": ["SBMA_2-site", 4], "7": ["SBMA_2-site", 4]}', 'substructure_query_id': 4, 'extended_name': 'SBMA_2-site'}, 3: {'residue_name': 'SBM', 'residue_number': 7, 'insertion_code': ' ', 'chain_id': '1', 'match_info': '{"1": ["SBMA_2-site", 5], "7": ["SBMA_2-site", 5]}', 'substructure_query_id': 5, 'extended_name': 'SBMA_2-site'}, 4: {'residue_name': 'SBM', 'residue_number': 7, 'insertion_code': ' ', 'chain_id': '1', 'match_info': '{"1": ["SBMA_2-site", 6], "7": ["SBMA_2-site", 6]}', 'substructure_query_id': 6, 'extended_name': 'SBMA_2-site'}, 5: {'residue_name': 'SBM', 'residue_number': 7, 'insertion_code': ' ', 'chain_id': '1', 'match_info': '{"1": ["SBMA_2-site", 7], "7": ["SBMA_2-site", 7]}', 'substructure_query_id': 7, 'extended_name': 'SBMA_2-site'}, 6: {'residue_name': 'SBM', 'residue_number': 7, 'insertion_code': ' ', 'chain_id': '1', 'match_info': '{"1": ["SBMA_2-site", 8], "7": ["SBMA_2-site", 8]}', 'substructure_query_id': 8, 'extended_name': 'SBMA_2-site'}, 7: {'residue_name': 'SBM', 'residue_number': 7, 'insertion_code': ' ', 'chain_id': '1', 'match_info': '{"1": ["SBMA_2-site", 9], "7": ["SBMA_2-site", 9]}', 'substructure_query_id': 9, 'extended_name': 'SBMA_2-site'}, 8: {'residue_name': 'SBM', 'residue_number': 7, 'insertion_code': ' ', 'chain_id': '1', 'match_info': '{"1": ["SBMA_2-site", 10], "7": ["SBMA_2-site", 10]}', 'substructure_query_id': 10, 'extended_name': 'SBMA_2-site'}, 9: {'residue_name': 'SBM', 'residue_number': 7, 'insertion_code': ' ', 'chain_id': '1', 'match_info': '{"1": ["SBMA_2-site", 11], "7": ["SBMA_2-site", 11]}', 'substructure_query_id': 11, 'extended_name': 'SBMA_2-site'}, 10: {'residue_name': 'SBM', 'residue_number': 7, 'insertion_code': ' ', 'chain_id': '1', 'match_info': '{"1": ["SBMA_2-site", 12], "7": ["SBMA_2-site", 12]}', 'substructure_query_id': 12, 'extended_name': 'SBMA_2-site'}, 11: {'residue_name': 'SBM', 'residue_number': 7, 'insertion_code': ' ', 'chain_id': '1', 'match_info': '{"1": ["SBMA_2-site", 13], "7": ["SBMA_2-site", 13]}', 'substructure_query_id': 13, 'extended_name': 'SBMA_2-site'}, 12: {'residue_name': 'SBM', 'residue_number': 7, 'insertion_code': ' ', 'chain_id': '1', 'match_info': '{"1": ["SBMA_2-site", 14], "7": ["SBMA_2-site", 14]}', 'substructure_query_id': 14, 'extended_name': 'SBMA_2-site'}, 13: {'residue_name': 'SBM', 'residue_number': 7, 'insertion_code': ' ', 'chain_id': '1', 'match_info': '{"1": ["SBMA_2-site", 15], "7": ["SBMA_2-site", 15]}', 'substructure_query_id': 15, 'extended_name': 'SBMA_2-site'}, 14: {'residue_name': 'SBM', 'residue_number': 7, 'insertion_code': ' ', 'chain_id': '1', 'match_info': '{"1": ["SBMA_2-site", 16], "7": ["SBMA_2-site", 16]}', 'substructure_query_id': 16, 'extended_name': 'SBMA_2-site'}, 15: {'residue_name': 'SBM', 'residue_number': 7, 'insertion_code': ' ', 'chain_id': '1', 'match_info': '{"1": ["SBMA_2-site", 17], "7": ["SBMA_2-site", 17]}', 'substructure_query_id': 17, 'extended_name': 'SBMA_2-site'}, 16: {'residue_name': 'SBM', 'residue_number': 7, 'insertion_code': ' ', 'chain_id': '1', 'match_info': '{"1": ["SBMA_2-site", 18], "7": ["SBMA_2-site", 18]}', 'substructure_query_id': 18, 'extended_name': 'SBMA_2-site'}, 17: {'residue_name': 'SBM', 'residue_number': 7, 'insertion_code': ' ', 'chain_id': '1', 'match_info': '{"1": ["SBMA_2-site", 19], "7": ["SBMA_2-site", 19]}', 'substructure_query_id': 19, 'extended_name': 'SBMA_2-site'}, 18: {'residue_name': 'SBM', 'residue_number': 7, 'insertion_code': ' ', 'chain_id': '1', 'match_info': '{"1": ["SBMA_2-site", 20], "7": ["SBMA_2-site", 20]}', 'substructure_query_id': 20, 'extended_name': 'SBMA_2-site'}, 19: {'residue_name': 'SBM', 'residue_number': 7, 'insertion_code': ' ', 'chain_id': '1', 'match_info': '{"1": ["SBMA_2-site", 21], "7": ["SBMA_2-site", 21]}', 'substructure_query_id': 21, 'extended_name': 'SBMA_2-site'}, 20: {'residue_name': 'SBM', 'residue_number': 7, 'insertion_code': ' ', 'chain_id': '1', 'match_info': '{"1": ["SBMA_2-site", 22], "7": ["SBMA_2-site", 22]}', 'substructure_query_id': 22, 'extended_name': 'SBMA_2-site'}, 21: {'residue_name': 'SBM', 'residue_number': 7, 'insertion_code': ' ', 'chain_id': '1', 'match_info': '{"1": ["SBMA_2-site", 23], "7": ["SBMA_2-site", 23]}', 'substructure_query_id': 23, 'extended_name': 'SBMA_2-site'}, 22: {'residue_name': 'SBM', 'residue_number': 7, 'insertion_code': ' ', 'chain_id': '1', 'match_info': '{"1": ["SBMA_2-site", 24], "7": ["SBMA_2-site", 24]}', 'substructure_query_id': 24, 'extended_name': 'SBMA_2-site'}, 23: {'residue_name': 'SBM', 'residue_number': 7, 'insertion_code': ' ', 'chain_id': '1', 'match_info': '{"1": ["SBMA_2-site", 25], "7": ["SBMA_2-site", 25]}', 'substructure_query_id': 25, 'extended_name': 'SBMA_2-site'}, 24: {'residue_name': 'SBM', 'residue_number': 7, 'insertion_code': ' ', 'chain_id': '1', 'match_info': '{"1": ["SBMA_2-site", 26], "7": ["SBMA_2-site", 26]}', 'substructure_query_id': 26, 'extended_name': 'SBMA_2-site'}, 25: {'residue_name': 'SBM', 'residue_number': 7, 'insertion_code': ' ', 'chain_id': '1', 'match_info': '{"1": ["SBMA_2-site", 27], "7": ["SBMA_2-site", 27]}', 'substructure_query_id': 27, 'extended_name': 'SBMA_2-site'}, 26: {'residue_name': 'SBM', 'residue_number': 7, 'insertion_code': ' ', 'chain_id': '1', 'match_info': '{"1": ["SBMA_2-site", 28], "7": ["SBMA_2-site", 28]}', 'substructure_query_id': 28, 'extended_name': 'SBMA_2-site'}, 27: {'residue_name': 'SBM', 'residue_number': 7, 'insertion_code': ' ', 'chain_id': '1', 'match_info': '{"1": ["SBMA_2-site", 29], "7": ["SBMA_2-site", 29]}', 'substructure_query_id': 29, 'extended_name': 'SBMA_2-site'}, 28: {'residue_name': 'SBM', 'residue_number': 7, 'insertion_code': ' ', 'chain_id': '1', 'match_info': '{"1": ["SBMA_2-site", 30], "7": ["SBMA_2-site", 30]}', 'substructure_query_id': 30, 'extended_name': 'SBMA_2-site'}, 29: {'residue_name': 'SBM', 'residue_number': 7, 'insertion_code': ' ', 'chain_id': '1', 'match_info': '{"1": ["SBMA_2-site", 31], "7": ["SBMA_2-site", 31]}', 'substructure_query_id': 31, 'extended_name': 'SBMA_2-site'}, 30: {'residue_name': 'SBM', 'residue_number': 7, 'insertion_code': ' ', 'chain_id': '1', 'match_info': '{"1": ["SBMA_2-site", 32], "7": ["SBMA_2-site", 32]}', 'substructure_query_id': 32, 'extended_name': 'SBMA_2-site'}, 31: {'residue_name': 'SBM', 'residue_number': 7, 'insertion_code': ' ', 'chain_id': '1', 'match_info': '{"1": ["SBMA_2-site", 33], "7": ["SBMA_2-site", 33]}', 'substructure_query_id': 33, 'extended_name': 'SBMA_2-site'}, 32: {'residue_name': 'SBM', 'residue_number': 7, 'insertion_code': ' ', 'chain_id': '1', 'match_info': '{"1": ["SBMA_2-site", 34], "7": ["SBMA_2-site", 34]}', 'substructure_query_id': 34, 'extended_name': 'SBMA_2-site'}, 33: {'residue_name': 'SBM', 'residue_number': 7, 'insertion_code': ' ', 'chain_id': '1', 'match_info': '{"1": ["SBMA_2-site", 35], "7": ["SBMA_2-site", 35]}', 'substructure_query_id': 35, 'extended_name': 'SBMA_2-site'}, 34: {'residue_name': 'SBM', 'residue_number': 7, 'insertion_code': ' ', 'chain_id': '1', 'match_info': '{"1": ["SBMA_2-site", 36], "7": ["SBMA_2-site", 36]}', 'substructure_query_id': 36, 'extended_name': 'SBMA_2-site'}, 35: {'residue_name': 'SBM', 'residue_number': 7, 'insertion_code': ' ', 'chain_id': '1', 'match_info': '{"1": ["SBMA_2-site", 37], "7": ["SBMA_2-site", 37]}', 'substructure_query_id': 37, 'extended_name': 'SBMA_2-site'}, 36: {'residue_name': 'SBM', 'residue_number': 7, 'insertion_code': ' ', 'chain_id': '1', 'match_info': '{"1": ["SBMA_2-site", 38], "7": ["SBMA_2-site", 38]}', 'substructure_query_id': 38, 'extended_name': 'SBMA_2-site'}, 37: {'residue_name': 'SBM', 'residue_number': 7, 'insertion_code': ' ', 'chain_id': '1', 'match_info': '{"7": ["SBMA_2-site", 39]}', 'substructure_query_id': 39, 'extended_name': 'SBMA_2-site'}, 38: {'residue_name': 'SBM', 'residue_number': 7, 'insertion_code': ' ', 'chain_id': '1', 'match_info': '{"7": ["SBMA_2-site", 40]}', 'substructure_query_id': 40, 'extended_name': 'SBMA_2-site'}, 39: {'residue_name': 'SBM', 'residue_number': 0, 'insertion_code': ' ', 'chain_id': '1', 'match_info': '{"0": ["SBMA_2-site", 1], "1": ["SBMA_2-site", 1]}', 'substructure_query_id': 1, 'extended_name': 'SBMA_2-site'}, 40: {'residue_name': 'SBM', 'residue_number': 0, 'insertion_code': ' ', 'chain_id': '1', 'match_info': '{"0": ["SBMA_2-site", 2], "3": ["SBMA_2-site", 2]}', 'substructure_query_id': 2, 'extended_name': 'SBMA_2-site'}, 41: {'residue_name': 'SBM', 'residue_number': 0, 'insertion_code': ' ', 'chain_id': '1', 'match_info': '{"0": ["SBMA_2-site", 4], "3": ["SBMA_2-site", 4]}', 'substructure_query_id': 4, 'extended_name': 'SBMA_2-site'}, 42: {'residue_name': 'SBM', 'residue_number': 0, 'insertion_code': ' ', 'chain_id': '1', 'match_info': '{"0": ["SBMA_2-site", 5], "3": ["SBMA_2-site", 5]}', 'substructure_query_id': 5, 'extended_name': 'SBMA_2-site'}, 43: {'residue_name': 'SBM', 'residue_number': 0, 'insertion_code': ' ', 'chain_id': '1', 'match_info': '{"0": ["SBMA_2-site", 6], "3": ["SBMA_2-site", 6]}', 'substructure_query_id': 6, 'extended_name': 'SBMA_2-site'}, 44: {'residue_name': 'SBM', 'residue_number': 0, 'insertion_code': ' ', 'chain_id': '1', 'match_info': '{"0": ["SBMA_2-site", 7], "3": ["SBMA_2-site", 7]}', 'substructure_query_id': 7, 'extended_name': 'SBMA_2-site'}, 45: {'residue_name': 'SBM', 'residue_number': 0, 'insertion_code': ' ', 'chain_id': '1', 'match_info': '{"0": ["SBMA_2-site", 8], "3": ["SBMA_2-site", 8]}', 'substructure_query_id': 8, 'extended_name': 'SBMA_2-site'}, 46: {'residue_name': 'SBM', 'residue_number': 0, 'insertion_code': ' ', 'chain_id': '1', 'match_info': '{"0": ["SBMA_2-site", 9], "3": ["SBMA_2-site", 9]}', 'substructure_query_id': 9, 'extended_name': 'SBMA_2-site'}, 47: {'residue_name': 'SBM', 'residue_number': 0, 'insertion_code': ' ', 'chain_id': '1', 'match_info': '{"0": ["SBMA_2-site", 10], "3": ["SBMA_2-site", 10]}', 'substructure_query_id': 10, 'extended_name': 'SBMA_2-site'}, 48: {'residue_name': 'SBM', 'residue_number': 0, 'insertion_code': ' ', 'chain_id': '1', 'match_info': '{"0": ["SBMA_2-site", 11], "3": ["SBMA_2-site", 11]}', 'substructure_query_id': 11, 'extended_name': 'SBMA_2-site'}, 49: {'residue_name': 'SBM', 'residue_number': 0, 'insertion_code': ' ', 'chain_id': '1', 'match_info': '{"0": ["SBMA_2-site", 12], "3": ["SBMA_2-site", 12]}', 'substructure_query_id': 12, 'extended_name': 'SBMA_2-site'}, 50: {'residue_name': 'SBM', 'residue_number': 0, 'insertion_code': ' ', 'chain_id': '1', 'match_info': '{"0": ["SBMA_2-site", 13], "3": ["SBMA_2-site", 13]}', 'substructure_query_id': 13, 'extended_name': 'SBMA_2-site'}, 51: {'residue_name': 'SBM', 'residue_number': 0, 'insertion_code': ' ', 'chain_id': '1', 'match_info': '{"0": ["SBMA_2-site", 14], "3": ["SBMA_2-site", 14]}', 'substructure_query_id': 14, 'extended_name': 'SBMA_2-site'}, 52: {'residue_name': 'SBM', 'residue_number': 0, 'insertion_code': ' ', 'chain_id': '1', 'match_info': '{"0": ["SBMA_2-site", 15], "3": ["SBMA_2-site", 15]}', 'substructure_query_id': 15, 'extended_name': 'SBMA_2-site'}, 53: {'residue_name': 'SBM', 'residue_number': 0, 'insertion_code': ' ', 'chain_id': '1', 'match_info': '{"0": ["SBMA_2-site", 16], "3": ["SBMA_2-site", 16]}', 'substructure_query_id': 16, 'extended_name': 'SBMA_2-site'}, 54: {'residue_name': 'SBM', 'residue_number': 0, 'insertion_code': ' ', 'chain_id': '1', 'match_info': '{"0": ["SBMA_2-site", 17], "3": ["SBMA_2-site", 17]}', 'substructure_query_id': 17, 'extended_name': 'SBMA_2-site'}, 55: {'residue_name': 'SBM', 'residue_number': 0, 'insertion_code': ' ', 'chain_id': '1', 'match_info': '{"0": ["SBMA_2-site", 18], "3": ["SBMA_2-site", 18]}', 'substructure_query_id': 18, 'extended_name': 'SBMA_2-site'}, 56: {'residue_name': 'SBM', 'residue_number': 0, 'insertion_code': ' ', 'chain_id': '1', 'match_info': '{"0": ["SBMA_2-site", 19], "3": ["SBMA_2-site", 19]}', 'substructure_query_id': 19, 'extended_name': 'SBMA_2-site'}, 57: {'residue_name': 'SBM', 'residue_number': 0, 'insertion_code': ' ', 'chain_id': '1', 'match_info': '{"0": ["SBMA_2-site", 20], "3": ["SBMA_2-site", 20]}', 'substructure_query_id': 20, 'extended_name': 'SBMA_2-site'}, 58: {'residue_name': 'SBM', 'residue_number': 0, 'insertion_code': ' ', 'chain_id': '1', 'match_info': '{"0": ["SBMA_2-site", 21], "3": ["SBMA_2-site", 21]}', 'substructure_query_id': 21, 'extended_name': 'SBMA_2-site'}, 59: {'residue_name': 'SBM', 'residue_number': 0, 'insertion_code': ' ', 'chain_id': '1', 'match_info': '{"0": ["SBMA_2-site", 22], "3": ["SBMA_2-site", 22]}', 'substructure_query_id': 22, 'extended_name': 'SBMA_2-site'}, 60: {'residue_name': 'SBM', 'residue_number': 0, 'insertion_code': ' ', 'chain_id': '1', 'match_info': '{"0": ["SBMA_2-site", 23], "3": ["SBMA_2-site", 23]}', 'substructure_query_id': 23, 'extended_name': 'SBMA_2-site'}, 61: {'residue_name': 'SBM', 'residue_number': 0, 'insertion_code': ' ', 'chain_id': '1', 'match_info': '{"0": ["SBMA_2-site", 24], "3": ["SBMA_2-site", 24]}', 'substructure_query_id': 24, 'extended_name': 'SBMA_2-site'}, 62: {'residue_name': 'SBM', 'residue_number': 0, 'insertion_code': ' ', 'chain_id': '1', 'match_info': '{"0": ["SBMA_2-site", 25], "3": ["SBMA_2-site", 25]}', 'substructure_query_id': 25, 'extended_name': 'SBMA_2-site'}, 63: {'residue_name': 'SBM', 'residue_number': 0, 'insertion_code': ' ', 'chain_id': '1', 'match_info': '{"0": ["SBMA_2-site", 26], "3": ["SBMA_2-site", 26]}', 'substructure_query_id': 26, 'extended_name': 'SBMA_2-site'}, 64: {'residue_name': 'SBM', 'residue_number': 0, 'insertion_code': ' ', 'chain_id': '1', 'match_info': '{"0": ["SBMA_2-site", 27], "3": ["SBMA_2-site", 27]}', 'substructure_query_id': 27, 'extended_name': 'SBMA_2-site'}, 65: {'residue_name': 'SBM', 'residue_number': 0, 'insertion_code': ' ', 'chain_id': '1', 'match_info': '{"0": ["SBMA_2-site", 28], "3": ["SBMA_2-site", 28]}', 'substructure_query_id': 28, 'extended_name': 'SBMA_2-site'}, 66: {'residue_name': 'SBM', 'residue_number': 0, 'insertion_code': ' ', 'chain_id': '1', 'match_info': '{"0": ["SBMA_2-site", 29], "3": ["SBMA_2-site", 29]}', 'substructure_query_id': 29, 'extended_name': 'SBMA_2-site'}, 67: {'residue_name': 'SBM', 'residue_number': 0, 'insertion_code': ' ', 'chain_id': '1', 'match_info': '{"0": ["SBMA_2-site", 30], "3": ["SBMA_2-site", 30]}', 'substructure_query_id': 30, 'extended_name': 'SBMA_2-site'}, 68: {'residue_name': 'SBM', 'residue_number': 0, 'insertion_code': ' ', 'chain_id': '1', 'match_info': '{"0": ["SBMA_2-site", 31], "3": ["SBMA_2-site", 31]}', 'substructure_query_id': 31, 'extended_name': 'SBMA_2-site'}, 69: {'residue_name': 'SBM', 'residue_number': 0, 'insertion_code': ' ', 'chain_id': '1', 'match_info': '{"0": ["SBMA_2-site", 32], "3": ["SBMA_2-site", 32]}', 'substructure_query_id': 32, 'extended_name': 'SBMA_2-site'}, 70: {'residue_name': 'SBM', 'residue_number': 0, 'insertion_code': ' ', 'chain_id': '1', 'match_info': '{"0": ["SBMA_2-site", 33], "3": ["SBMA_2-site", 33]}', 'substructure_query_id': 33, 'extended_name': 'SBMA_2-site'}, 71: {'residue_name': 'SBM', 'residue_number': 0, 'insertion_code': ' ', 'chain_id': '1', 'match_info': '{"0": ["SBMA_2-site", 34], "3": ["SBMA_2-site", 34]}', 'substructure_query_id': 34, 'extended_name': 'SBMA_2-site'}, 72: {'residue_name': 'SBM', 'residue_number': 0, 'insertion_code': ' ', 'chain_id': '1', 'match_info': '{"0": ["SBMA_2-site", 35], "3": ["SBMA_2-site", 35]}', 'substructure_query_id': 35, 'extended_name': 'SBMA_2-site'}, 73: {'residue_name': 'SBM', 'residue_number': 0, 'insertion_code': ' ', 'chain_id': '1', 'match_info': '{"0": ["SBMA_2-site", 36], "3": ["SBMA_2-site", 36]}', 'substructure_query_id': 36, 'extended_name': 'SBMA_2-site'}, 74: {'residue_name': 'SBM', 'residue_number': 0, 'insertion_code': ' ', 'chain_id': '1', 'match_info': '{"0": ["SBMA_2-site", 37], "3": ["SBMA_2-site", 37]}', 'substructure_query_id': 37, 'extended_name': 'SBMA_2-site'}, 75: {'residue_name': 'SBM', 'residue_number': 0, 'insertion_code': ' ', 'chain_id': '1', 'match_info': '{"0": ["SBMA_2-site", 38], "3": ["SBMA_2-site", 38]}', 'substructure_query_id': 38, 'extended_name': 'SBMA_2-site'}, 76: {'residue_name': 'SBM', 'residue_number': 0, 'insertion_code': ' ', 'chain_id': '1', 'match_info': '{"0": ["SBMA_2-site", 39], "1": ["SBMA_2-site", 39]}', 'substructure_query_id': 39, 'extended_name': 'SBMA_2-site'}, 77: {'residue_name': 'SBM', 'residue_number': 0, 'insertion_code': ' ', 'chain_id': '1', 'match_info': '{"0": ["SBMA_2-site", 40], "1": ["SBMA_2-site", 40]}', 'substructure_query_id': 40, 'extended_name': 'SBMA_2-site'}, 78: {'residue_name': 'SBM', 'residue_number': 2, 'insertion_code': ' ', 'chain_id': '1', 'match_info': '{"2": ["SBMA_2-site", 1], "3": ["SBMA_2-site", 1]}', 'substructure_query_id': 1, 'extended_name': 'SBMA_2-site'}, 79: {'residue_name': 'SBM', 'residue_number': 2, 'insertion_code': ' ', 'chain_id': '1', 'match_info': '{"2": ["SBMA_2-site", 2], "5": ["SBMA_2-site", 2]}', 'substructure_query_id': 2, 'extended_name': 'SBMA_2-site'}, 80: {'residue_name': 'SBM', 'residue_number': 2, 'insertion_code': ' ', 'chain_id': '1', 'match_info': '{"2": ["SBMA_2-site", 4], "5": ["SBMA_2-site", 4]}', 'substructure_query_id': 4, 'extended_name': 'SBMA_2-site'}, 81: {'residue_name': 'SBM', 'residue_number': 2, 'insertion_code': ' ', 'chain_id': '1', 'match_info': '{"2": ["SBMA_2-site", 5], "5": ["SBMA_2-site", 5]}', 'substructure_query_id': 5, 'extended_name': 'SBMA_2-site'}, 82: {'residue_name': 'SBM', 'residue_number': 2, 'insertion_code': ' ', 'chain_id': '1', 'match_info': '{"2": ["SBMA_2-site", 6], "5": ["SBMA_2-site", 6]}', 'substructure_query_id': 6, 'extended_name': 'SBMA_2-site'}, 83: {'residue_name': 'SBM', 'residue_number': 2, 'insertion_code': ' ', 'chain_id': '1', 'match_info': '{"2": ["SBMA_2-site", 7], "5": ["SBMA_2-site", 7]}', 'substructure_query_id': 7, 'extended_name': 'SBMA_2-site'}, 84: {'residue_name': 'SBM', 'residue_number': 2, 'insertion_code': ' ', 'chain_id': '1', 'match_info': '{"2": ["SBMA_2-site", 8], "5": ["SBMA_2-site", 8]}', 'substructure_query_id': 8, 'extended_name': 'SBMA_2-site'}, 85: {'residue_name': 'SBM', 'residue_number': 2, 'insertion_code': ' ', 'chain_id': '1', 'match_info': '{"2": ["SBMA_2-site", 9], "5": ["SBMA_2-site", 9]}', 'substructure_query_id': 9, 'extended_name': 'SBMA_2-site'}, 86: {'residue_name': 'SBM', 'residue_number': 2, 'insertion_code': ' ', 'chain_id': '1', 'match_info': '{"2": ["SBMA_2-site", 10], "5": ["SBMA_2-site", 10]}', 'substructure_query_id': 10, 'extended_name': 'SBMA_2-site'}, 87: {'residue_name': 'SBM', 'residue_number': 2, 'insertion_code': ' ', 'chain_id': '1', 'match_info': '{"2": ["SBMA_2-site", 11], "5": ["SBMA_2-site", 11]}', 'substructure_query_id': 11, 'extended_name': 'SBMA_2-site'}, 88: {'residue_name': 'SBM', 'residue_number': 2, 'insertion_code': ' ', 'chain_id': '1', 'match_info': '{"2": ["SBMA_2-site", 12], "5": ["SBMA_2-site", 12]}', 'substructure_query_id': 12, 'extended_name': 'SBMA_2-site'}, 89: {'residue_name': 'SBM', 'residue_number': 2, 'insertion_code': ' ', 'chain_id': '1', 'match_info': '{"2": ["SBMA_2-site", 13], "5": ["SBMA_2-site", 13]}', 'substructure_query_id': 13, 'extended_name': 'SBMA_2-site'}, 90: {'residue_name': 'SBM', 'residue_number': 2, 'insertion_code': ' ', 'chain_id': '1', 'match_info': '{"2": ["SBMA_2-site", 14], "5": ["SBMA_2-site", 14]}', 'substructure_query_id': 14, 'extended_name': 'SBMA_2-site'}, 91: {'residue_name': 'SBM', 'residue_number': 2, 'insertion_code': ' ', 'chain_id': '1', 'match_info': '{"2": ["SBMA_2-site", 15], "5": ["SBMA_2-site", 15]}', 'substructure_query_id': 15, 'extended_name': 'SBMA_2-site'}, 92: {'residue_name': 'SBM', 'residue_number': 2, 'insertion_code': ' ', 'chain_id': '1', 'match_info': '{"2": ["SBMA_2-site", 16], "5": ["SBMA_2-site", 16]}', 'substructure_query_id': 16, 'extended_name': 'SBMA_2-site'}, 93: {'residue_name': 'SBM', 'residue_number': 2, 'insertion_code': ' ', 'chain_id': '1', 'match_info': '{"2": ["SBMA_2-site", 17], "5": ["SBMA_2-site", 17]}', 'substructure_query_id': 17, 'extended_name': 'SBMA_2-site'}, 94: {'residue_name': 'SBM', 'residue_number': 2, 'insertion_code': ' ', 'chain_id': '1', 'match_info': '{"2": ["SBMA_2-site", 18], "5": ["SBMA_2-site", 18]}', 'substructure_query_id': 18, 'extended_name': 'SBMA_2-site'}, 95: {'residue_name': 'SBM', 'residue_number': 2, 'insertion_code': ' ', 'chain_id': '1', 'match_info': '{"2": ["SBMA_2-site", 19], "5": ["SBMA_2-site", 19]}', 'substructure_query_id': 19, 'extended_name': 'SBMA_2-site'}, 96: {'residue_name': 'SBM', 'residue_number': 2, 'insertion_code': ' ', 'chain_id': '1', 'match_info': '{"2": ["SBMA_2-site", 20], "5": ["SBMA_2-site", 20]}', 'substructure_query_id': 20, 'extended_name': 'SBMA_2-site'}, 97: {'residue_name': 'SBM', 'residue_number': 2, 'insertion_code': ' ', 'chain_id': '1', 'match_info': '{"2": ["SBMA_2-site", 21], "5": ["SBMA_2-site", 21]}', 'substructure_query_id': 21, 'extended_name': 'SBMA_2-site'}, 98: {'residue_name': 'SBM', 'residue_number': 2, 'insertion_code': ' ', 'chain_id': '1', 'match_info': '{"2": ["SBMA_2-site", 22], "5": ["SBMA_2-site", 22]}', 'substructure_query_id': 22, 'extended_name': 'SBMA_2-site'}, 99: {'residue_name': 'SBM', 'residue_number': 2, 'insertion_code': ' ', 'chain_id': '1', 'match_info': '{"2": ["SBMA_2-site", 23], "5": ["SBMA_2-site", 23]}', 'substructure_query_id': 23, 'extended_name': 'SBMA_2-site'}, 100: {'residue_name': 'SBM', 'residue_number': 2, 'insertion_code': ' ', 'chain_id': '1', 'match_info': '{"2": ["SBMA_2-site", 24], "5": ["SBMA_2-site", 24]}', 'substructure_query_id': 24, 'extended_name': 'SBMA_2-site'}, 101: {'residue_name': 'SBM', 'residue_number': 2, 'insertion_code': ' ', 'chain_id': '1', 'match_info': '{"2": ["SBMA_2-site", 25], "5": ["SBMA_2-site", 25]}', 'substructure_query_id': 25, 'extended_name': 'SBMA_2-site'}, 102: {'residue_name': 'SBM', 'residue_number': 2, 'insertion_code': ' ', 'chain_id': '1', 'match_info': '{"2": ["SBMA_2-site", 26], "5": ["SBMA_2-site", 26]}', 'substructure_query_id': 26, 'extended_name': 'SBMA_2-site'}, 103: {'residue_name': 'SBM', 'residue_number': 2, 'insertion_code': ' ', 'chain_id': '1', 'match_info': '{"2": ["SBMA_2-site", 27], "5": ["SBMA_2-site", 27]}', 'substructure_query_id': 27, 'extended_name': 'SBMA_2-site'}, 104: {'residue_name': 'SBM', 'residue_number': 2, 'insertion_code': ' ', 'chain_id': '1', 'match_info': '{"2": ["SBMA_2-site", 28], "5": ["SBMA_2-site", 28]}', 'substructure_query_id': 28, 'extended_name': 'SBMA_2-site'}, 105: {'residue_name': 'SBM', 'residue_number': 2, 'insertion_code': ' ', 'chain_id': '1', 'match_info': '{"2": ["SBMA_2-site", 29], "5": ["SBMA_2-site", 29]}', 'substructure_query_id': 29, 'extended_name': 'SBMA_2-site'}, 106: {'residue_name': 'SBM', 'residue_number': 2, 'insertion_code': ' ', 'chain_id': '1', 'match_info': '{"2": ["SBMA_2-site", 30], "5": ["SBMA_2-site", 30]}', 'substructure_query_id': 30, 'extended_name': 'SBMA_2-site'}, 107: {'residue_name': 'SBM', 'residue_number': 2, 'insertion_code': ' ', 'chain_id': '1', 'match_info': '{"2": ["SBMA_2-site", 31], "5": ["SBMA_2-site", 31]}', 'substructure_query_id': 31, 'extended_name': 'SBMA_2-site'}, 108: {'residue_name': 'SBM', 'residue_number': 2, 'insertion_code': ' ', 'chain_id': '1', 'match_info': '{"2": ["SBMA_2-site", 32], "5": ["SBMA_2-site", 32]}', 'substructure_query_id': 32, 'extended_name': 'SBMA_2-site'}, 109: {'residue_name': 'SBM', 'residue_number': 2, 'insertion_code': ' ', 'chain_id': '1', 'match_info': '{"2": ["SBMA_2-site", 33], "5": ["SBMA_2-site", 33]}', 'substructure_query_id': 33, 'extended_name': 'SBMA_2-site'}, 110: {'residue_name': 'SBM', 'residue_number': 2, 'insertion_code': ' ', 'chain_id': '1', 'match_info': '{"2": ["SBMA_2-site", 34], "5": ["SBMA_2-site", 34]}', 'substructure_query_id': 34, 'extended_name': 'SBMA_2-site'}, 111: {'residue_name': 'SBM', 'residue_number': 2, 'insertion_code': ' ', 'chain_id': '1', 'match_info': '{"2": ["SBMA_2-site", 35], "5": ["SBMA_2-site", 35]}', 'substructure_query_id': 35, 'extended_name': 'SBMA_2-site'}, 112: {'residue_name': 'SBM', 'residue_number': 2, 'insertion_code': ' ', 'chain_id': '1', 'match_info': '{"2": ["SBMA_2-site", 36], "5": ["SBMA_2-site", 36]}', 'substructure_query_id': 36, 'extended_name': 'SBMA_2-site'}, 113: {'residue_name': 'SBM', 'residue_number': 2, 'insertion_code': ' ', 'chain_id': '1', 'match_info': '{"2": ["SBMA_2-site", 37], "5": ["SBMA_2-site", 37]}', 'substructure_query_id': 37, 'extended_name': 'SBMA_2-site'}, 114: {'residue_name': 'SBM', 'residue_number': 2, 'insertion_code': ' ', 'chain_id': '1', 'match_info': '{"2": ["SBMA_2-site", 38], "5": ["SBMA_2-site", 38]}', 'substructure_query_id': 38, 'extended_name': 'SBMA_2-site'}, 115: {'residue_name': 'SBM', 'residue_number': 2, 'insertion_code': ' ', 'chain_id': '1', 'match_info': '{"2": ["SBMA_2-site", 39], "3": ["SBMA_2-site", 39]}', 'substructure_query_id': 39, 'extended_name': 'SBMA_2-site'}, 116: {'residue_name': 'SBM', 'residue_number': 2, 'insertion_code': ' ', 'chain_id': '1', 'match_info': '{"2": ["SBMA_2-site", 40], "3": ["SBMA_2-site", 40]}', 'substructure_query_id': 40, 'extended_name': 'SBMA_2-site'}, 117: {'residue_name': 'SBM', 'residue_number': 4, 'insertion_code': ' ', 'chain_id': '1', 'match_info': '{"4": ["SBMA_2-site", 1], "5": ["SBMA_2-site", 1]}', 'substructure_query_id': 1, 'extended_name': 'SBMA_2-site'}, 118: {'residue_name': 'SBM', 'residue_number': 4, 'insertion_code': ' ', 'chain_id': '1', 'match_info': '{"4": ["SBMA_2-site", 2], "6": ["SBMA_2-site", 2]}', 'substructure_query_id': 2, 'extended_name': 'SBMA_2-site'}, 119: {'residue_name': 'SBM', 'residue_number': 4, 'insertion_code': ' ', 'chain_id': '1', 'match_info': '{"4": ["SBMA_2-site", 4], "6": ["SBMA_2-site", 4]}', 'substructure_query_id': 4, 'extended_name': 'SBMA_2-site'}, 120: {'residue_name': 'SBM', 'residue_number': 4, 'insertion_code': ' ', 'chain_id': '1', 'match_info': '{"4": ["SBMA_2-site", 5], "6": ["SBMA_2-site", 5]}', 'substructure_query_id': 5, 'extended_name': 'SBMA_2-site'}, 121: {'residue_name': 'SBM', 'residue_number': 4, 'insertion_code': ' ', 'chain_id': '1', 'match_info': '{"4": ["SBMA_2-site", 6], "6": ["SBMA_2-site", 6]}', 'substructure_query_id': 6, 'extended_name': 'SBMA_2-site'}, 122: {'residue_name': 'SBM', 'residue_number': 4, 'insertion_code': ' ', 'chain_id': '1', 'match_info': '{"4": ["SBMA_2-site", 7], "6": ["SBMA_2-site", 7]}', 'substructure_query_id': 7, 'extended_name': 'SBMA_2-site'}, 123: {'residue_name': 'SBM', 'residue_number': 4, 'insertion_code': ' ', 'chain_id': '1', 'match_info': '{"4": ["SBMA_2-site", 8], "6": ["SBMA_2-site", 8]}', 'substructure_query_id': 8, 'extended_name': 'SBMA_2-site'}, 124: {'residue_name': 'SBM', 'residue_number': 4, 'insertion_code': ' ', 'chain_id': '1', 'match_info': '{"4": ["SBMA_2-site", 9], "6": ["SBMA_2-site", 9]}', 'substructure_query_id': 9, 'extended_name': 'SBMA_2-site'}, 125: {'residue_name': 'SBM', 'residue_number': 4, 'insertion_code': ' ', 'chain_id': '1', 'match_info': '{"4": ["SBMA_2-site", 10], "6": ["SBMA_2-site", 10]}', 'substructure_query_id': 10, 'extended_name': 'SBMA_2-site'}, 126: {'residue_name': 'SBM', 'residue_number': 4, 'insertion_code': ' ', 'chain_id': '1', 'match_info': '{"4": ["SBMA_2-site", 11], "6": ["SBMA_2-site", 11]}', 'substructure_query_id': 11, 'extended_name': 'SBMA_2-site'}, 127: {'residue_name': 'SBM', 'residue_number': 4, 'insertion_code': ' ', 'chain_id': '1', 'match_info': '{"4": ["SBMA_2-site", 12], "6": ["SBMA_2-site", 12]}', 'substructure_query_id': 12, 'extended_name': 'SBMA_2-site'}, 128: {'residue_name': 'SBM', 'residue_number': 4, 'insertion_code': ' ', 'chain_id': '1', 'match_info': '{"4": ["SBMA_2-site", 13], "6": ["SBMA_2-site", 13]}', 'substructure_query_id': 13, 'extended_name': 'SBMA_2-site'}, 129: {'residue_name': 'SBM', 'residue_number': 4, 'insertion_code': ' ', 'chain_id': '1', 'match_info': '{"4": ["SBMA_2-site", 14], "6": ["SBMA_2-site", 14]}', 'substructure_query_id': 14, 'extended_name': 'SBMA_2-site'}, 130: {'residue_name': 'SBM', 'residue_number': 4, 'insertion_code': ' ', 'chain_id': '1', 'match_info': '{"4": ["SBMA_2-site", 15], "6": ["SBMA_2-site", 15]}', 'substructure_query_id': 15, 'extended_name': 'SBMA_2-site'}, 131: {'residue_name': 'SBM', 'residue_number': 4, 'insertion_code': ' ', 'chain_id': '1', 'match_info': '{"4": ["SBMA_2-site", 16], "6": ["SBMA_2-site", 16]}', 'substructure_query_id': 16, 'extended_name': 'SBMA_2-site'}, 132: {'residue_name': 'SBM', 'residue_number': 4, 'insertion_code': ' ', 'chain_id': '1', 'match_info': '{"4": ["SBMA_2-site", 17], "6": ["SBMA_2-site", 17]}', 'substructure_query_id': 17, 'extended_name': 'SBMA_2-site'}, 133: {'residue_name': 'SBM', 'residue_number': 4, 'insertion_code': ' ', 'chain_id': '1', 'match_info': '{"4": ["SBMA_2-site", 18], "6": ["SBMA_2-site", 18]}', 'substructure_query_id': 18, 'extended_name': 'SBMA_2-site'}, 134: {'residue_name': 'SBM', 'residue_number': 4, 'insertion_code': ' ', 'chain_id': '1', 'match_info': '{"4": ["SBMA_2-site", 19], "6": ["SBMA_2-site", 19]}', 'substructure_query_id': 19, 'extended_name': 'SBMA_2-site'}, 135: {'residue_name': 'SBM', 'residue_number': 4, 'insertion_code': ' ', 'chain_id': '1', 'match_info': '{"4": ["SBMA_2-site", 20], "6": ["SBMA_2-site", 20]}', 'substructure_query_id': 20, 'extended_name': 'SBMA_2-site'}, 136: {'residue_name': 'SBM', 'residue_number': 4, 'insertion_code': ' ', 'chain_id': '1', 'match_info': '{"4": ["SBMA_2-site", 21], "6": ["SBMA_2-site", 21]}', 'substructure_query_id': 21, 'extended_name': 'SBMA_2-site'}, 137: {'residue_name': 'SBM', 'residue_number': 4, 'insertion_code': ' ', 'chain_id': '1', 'match_info': '{"4": ["SBMA_2-site", 22], "6": ["SBMA_2-site", 22]}', 'substructure_query_id': 22, 'extended_name': 'SBMA_2-site'}, 138: {'residue_name': 'SBM', 'residue_number': 4, 'insertion_code': ' ', 'chain_id': '1', 'match_info': '{"4": ["SBMA_2-site", 23], "6": ["SBMA_2-site", 23]}', 'substructure_query_id': 23, 'extended_name': 'SBMA_2-site'}, 139: {'residue_name': 'SBM', 'residue_number': 4, 'insertion_code': ' ', 'chain_id': '1', 'match_info': '{"4": ["SBMA_2-site", 24], "6": ["SBMA_2-site", 24]}', 'substructure_query_id': 24, 'extended_name': 'SBMA_2-site'}, 140: {'residue_name': 'SBM', 'residue_number': 4, 'insertion_code': ' ', 'chain_id': '1', 'match_info': '{"4": ["SBMA_2-site", 25], "6": ["SBMA_2-site", 25]}', 'substructure_query_id': 25, 'extended_name': 'SBMA_2-site'}, 141: {'residue_name': 'SBM', 'residue_number': 4, 'insertion_code': ' ', 'chain_id': '1', 'match_info': '{"4": ["SBMA_2-site", 26], "6": ["SBMA_2-site", 26]}', 'substructure_query_id': 26, 'extended_name': 'SBMA_2-site'}, 142: {'residue_name': 'SBM', 'residue_number': 4, 'insertion_code': ' ', 'chain_id': '1', 'match_info': '{"4": ["SBMA_2-site", 27], "6": ["SBMA_2-site", 27]}', 'substructure_query_id': 27, 'extended_name': 'SBMA_2-site'}, 143: {'residue_name': 'SBM', 'residue_number': 4, 'insertion_code': ' ', 'chain_id': '1', 'match_info': '{"4": ["SBMA_2-site", 28], "6": ["SBMA_2-site", 28]}', 'substructure_query_id': 28, 'extended_name': 'SBMA_2-site'}, 144: {'residue_name': 'SBM', 'residue_number': 4, 'insertion_code': ' ', 'chain_id': '1', 'match_info': '{"4": ["SBMA_2-site", 29], "6": ["SBMA_2-site", 29]}', 'substructure_query_id': 29, 'extended_name': 'SBMA_2-site'}, 145: {'residue_name': 'SBM', 'residue_number': 4, 'insertion_code': ' ', 'chain_id': '1', 'match_info': '{"4": ["SBMA_2-site", 30], "6": ["SBMA_2-site", 30]}', 'substructure_query_id': 30, 'extended_name': 'SBMA_2-site'}, 146: {'residue_name': 'SBM', 'residue_number': 4, 'insertion_code': ' ', 'chain_id': '1', 'match_info': '{"4": ["SBMA_2-site", 31], "6": ["SBMA_2-site", 31]}', 'substructure_query_id': 31, 'extended_name': 'SBMA_2-site'}, 147: {'residue_name': 'SBM', 'residue_number': 4, 'insertion_code': ' ', 'chain_id': '1', 'match_info': '{"4": ["SBMA_2-site", 32], "6": ["SBMA_2-site", 32]}', 'substructure_query_id': 32, 'extended_name': 'SBMA_2-site'}, 148: {'residue_name': 'SBM', 'residue_number': 4, 'insertion_code': ' ', 'chain_id': '1', 'match_info': '{"4": ["SBMA_2-site", 33], "6": ["SBMA_2-site", 33]}', 'substructure_query_id': 33, 'extended_name': 'SBMA_2-site'}, 149: {'residue_name': 'SBM', 'residue_number': 4, 'insertion_code': ' ', 'chain_id': '1', 'match_info': '{"4": ["SBMA_2-site", 34], "6": ["SBMA_2-site", 34]}', 'substructure_query_id': 34, 'extended_name': 'SBMA_2-site'}, 150: {'residue_name': 'SBM', 'residue_number': 4, 'insertion_code': ' ', 'chain_id': '1', 'match_info': '{"4": ["SBMA_2-site", 35], "6": ["SBMA_2-site", 35]}', 'substructure_query_id': 35, 'extended_name': 'SBMA_2-site'}, 151: {'residue_name': 'SBM', 'residue_number': 4, 'insertion_code': ' ', 'chain_id': '1', 'match_info': '{"4": ["SBMA_2-site", 36], "6": ["SBMA_2-site", 36]}', 'substructure_query_id': 36, 'extended_name': 'SBMA_2-site'}, 152: {'residue_name': 'SBM', 'residue_number': 4, 'insertion_code': ' ', 'chain_id': '1', 'match_info': '{"4": ["SBMA_2-site", 37], "6": ["SBMA_2-site", 37]}', 'substructure_query_id': 37, 'extended_name': 'SBMA_2-site'}, 153: {'residue_name': 'SBM', 'residue_number': 4, 'insertion_code': ' ', 'chain_id': '1', 'match_info': '{"4": ["SBMA_2-site", 38], "6": ["SBMA_2-site", 38]}', 'substructure_query_id': 38, 'extended_name': 'SBMA_2-site'}, 154: {'residue_name': 'SBM', 'residue_number': 4, 'insertion_code': ' ', 'chain_id': '1', 'match_info': '{"4": ["SBMA_2-site", 39], "5": ["SBMA_2-site", 39]}', 'substructure_query_id': 39, 'extended_name': 'SBMA_2-site'}, 155: {'residue_name': 'SBM', 'residue_number': 4, 'insertion_code': ' ', 'chain_id': '1', 'match_info': '{"4": ["SBMA_2-site", 40], "5": ["SBMA_2-site", 40]}', 'substructure_query_id': 40, 'extended_name': 'SBMA_2-site'}, 156: {'residue_name': 'PEG', 'residue_number': 10, 'insertion_code': ' ', 'chain_id': '1', 'match_info': '{"6": ["SBMA_2-site", 1], "10": ["PEGMA_2-site", 1]}', 'substructure_query_id': 1, 'extended_name': 'PEGMA_2-site'}, 157: {'residue_name': 'PEG', 'residue_number': 10, 'insertion_code': ' ', 'chain_id': '1', 'match_info': '{"10": ["PEGMA_2-site", 2], "12": ["PEGMA_2-site", 2]}', 'substructure_query_id': 2, 'extended_name': 'PEGMA_2-site'}, 158: {'residue_name': 'PEG', 'residue_number': 10, 'insertion_code': ' ', 'chain_id': '1', 'match_info': '{"10": ["PEGMA_2-site", 4], "12": ["PEGMA_2-site", 4]}', 'substructure_query_id': 4, 'extended_name': 'PEGMA_2-site'}, 159: {'residue_name': 'PEG', 'residue_number': 10, 'insertion_code': ' ', 'chain_id': '1', 'match_info': '{"10": ["PEGMA_2-site", 5], "12": ["PEGMA_2-site", 5]}', 'substructure_query_id': 5, 'extended_name': 'PEGMA_2-site'}, 160: {'residue_name': 'PEG', 'residue_number': 10, 'insertion_code': ' ', 'chain_id': '1', 'match_info': '{"10": ["PEGMA_2-site", 6], "12": ["PEGMA_2-site", 6]}', 'substructure_query_id': 6, 'extended_name': 'PEGMA_2-site'}, 161: {'residue_name': 'PEG', 'residue_number': 10, 'insertion_code': ' ', 'chain_id': '1', 'match_info': '{"10": ["PEGMA_2-site", 7], "12": ["PEGMA_2-site", 7]}', 'substructure_query_id': 7, 'extended_name': 'PEGMA_2-site'}, 162: {'residue_name': 'PEG', 'residue_number': 10, 'insertion_code': ' ', 'chain_id': '1', 'match_info': '{"10": ["PEGMA_2-site", 8], "12": ["PEGMA_2-site", 8]}', 'substructure_query_id': 8, 'extended_name': 'PEGMA_2-site'}, 163: {'residue_name': 'PEG', 'residue_number': 10, 'insertion_code': ' ', 'chain_id': '1', 'match_info': '{"10": ["PEGMA_2-site", 9], "12": ["PEGMA_2-site", 9]}', 'substructure_query_id': 9, 'extended_name': 'PEGMA_2-site'}, 164: {'residue_name': 'PEG', 'residue_number': 10, 'insertion_code': ' ', 'chain_id': '1', 'match_info': '{"10": ["PEGMA_2-site", 10], "12": ["PEGMA_2-site", 10]}', 'substructure_query_id': 10, 'extended_name': 'PEGMA_2-site'}, 165: {'residue_name': 'PEG', 'residue_number': 10, 'insertion_code': ' ', 'chain_id': '1', 'match_info': '{"10": ["PEGMA_2-site", 11], "12": ["PEGMA_2-site", 11]}', 'substructure_query_id': 11, 'extended_name': 'PEGMA_2-site'}, 166: {'residue_name': 'PEG', 'residue_number': 10, 'insertion_code': ' ', 'chain_id': '1', 'match_info': '{"10": ["PEGMA_2-site", 12], "12": ["PEGMA_2-site", 12]}', 'substructure_query_id': 12, 'extended_name': 'PEGMA_2-site'}, 167: {'residue_name': 'PEG', 'residue_number': 10, 'insertion_code': ' ', 'chain_id': '1', 'match_info': '{"10": ["PEGMA_2-site", 13], "12": ["PEGMA_2-site", 13]}', 'substructure_query_id': 13, 'extended_name': 'PEGMA_2-site'}, 168: {'residue_name': 'PEG', 'residue_number': 10, 'insertion_code': ' ', 'chain_id': '1', 'match_info': '{"10": ["PEGMA_2-site", 14], "12": ["PEGMA_2-site", 14]}', 'substructure_query_id': 14, 'extended_name': 'PEGMA_2-site'}, 169: {'residue_name': 'PEG', 'residue_number': 10, 'insertion_code': ' ', 'chain_id': '1', 'match_info': '{"10": ["PEGMA_2-site", 15], "12": ["PEGMA_2-site", 15]}', 'substructure_query_id': 15, 'extended_name': 'PEGMA_2-site'}, 170: {'residue_name': 'PEG', 'residue_number': 10, 'insertion_code': ' ', 'chain_id': '1', 'match_info': '{"10": ["PEGMA_2-site", 16], "12": ["PEGMA_2-site", 16]}', 'substructure_query_id': 16, 'extended_name': 'PEGMA_2-site'}, 171: {'residue_name': 'PEG', 'residue_number': 10, 'insertion_code': ' ', 'chain_id': '1', 'match_info': '{"10": ["PEGMA_2-site", 17], "12": ["PEGMA_2-site", 17]}', 'substructure_query_id': 17, 'extended_name': 'PEGMA_2-site'}, 172: {'residue_name': 'PEG', 'residue_number': 10, 'insertion_code': ' ', 'chain_id': '1', 'match_info': '{"10": ["PEGMA_2-site", 18], "12": ["PEGMA_2-site", 18]}', 'substructure_query_id': 18, 'extended_name': 'PEGMA_2-site'}, 173: {'residue_name': 'PEG', 'residue_number': 10, 'insertion_code': ' ', 'chain_id': '1', 'match_info': '{"10": ["PEGMA_2-site", 19], "12": ["PEGMA_2-site", 19]}', 'substructure_query_id': 19, 'extended_name': 'PEGMA_2-site'}, 174: {'residue_name': 'PEG', 'residue_number': 10, 'insertion_code': ' ', 'chain_id': '1', 'match_info': '{"10": ["PEGMA_2-site", 20], "12": ["PEGMA_2-site", 20]}', 'substructure_query_id': 20, 'extended_name': 'PEGMA_2-site'}, 175: {'residue_name': 'PEG', 'residue_number': 10, 'insertion_code': ' ', 'chain_id': '1', 'match_info': '{"10": ["PEGMA_2-site", 21], "12": ["PEGMA_2-site", 21]}', 'substructure_query_id': 21, 'extended_name': 'PEGMA_2-site'}, 176: {'residue_name': 'PEG', 'residue_number': 10, 'insertion_code': ' ', 'chain_id': '1', 'match_info': '{"10": ["PEGMA_2-site", 22], "12": ["PEGMA_2-site", 22]}', 'substructure_query_id': 22, 'extended_name': 'PEGMA_2-site'}, 177: {'residue_name': 'PEG', 'residue_number': 10, 'insertion_code': ' ', 'chain_id': '1', 'match_info': '{"10": ["PEGMA_2-site", 23], "12": ["PEGMA_2-site", 23]}', 'substructure_query_id': 23, 'extended_name': 'PEGMA_2-site'}, 178: {'residue_name': 'PEG', 'residue_number': 10, 'insertion_code': ' ', 'chain_id': '1', 'match_info': '{"10": ["PEGMA_2-site", 24], "12": ["PEGMA_2-site", 24]}', 'substructure_query_id': 24, 'extended_name': 'PEGMA_2-site'}, 179: {'residue_name': 'PEG', 'residue_number': 10, 'insertion_code': ' ', 'chain_id': '1', 'match_info': '{"10": ["PEGMA_2-site", 25], "12": ["PEGMA_2-site", 25]}', 'substructure_query_id': 25, 'extended_name': 'PEGMA_2-site'}, 180: {'residue_name': 'PEG', 'residue_number': 10, 'insertion_code': ' ', 'chain_id': '1', 'match_info': '{"10": ["PEGMA_2-site", 26], "12": ["PEGMA_2-site", 26]}', 'substructure_query_id': 26, 'extended_name': 'PEGMA_2-site'}, 181: {'residue_name': 'PEG', 'residue_number': 10, 'insertion_code': ' ', 'chain_id': '1', 'match_info': '{"10": ["PEGMA_2-site", 27], "12": ["PEGMA_2-site", 27]}', 'substructure_query_id': 27, 'extended_name': 'PEGMA_2-site'}, 182: {'residue_name': 'PEG', 'residue_number': 10, 'insertion_code': ' ', 'chain_id': '1', 'match_info': '{"10": ["PEGMA_2-site", 28], "12": ["PEGMA_2-site", 28]}', 'substructure_query_id': 28, 'extended_name': 'PEGMA_2-site'}, 183: {'residue_name': 'PEG', 'residue_number': 10, 'insertion_code': ' ', 'chain_id': '1', 'match_info': '{"10": ["PEGMA_2-site", 29], "12": ["PEGMA_2-site", 29]}', 'substructure_query_id': 29, 'extended_name': 'PEGMA_2-site'}, 184: {'residue_name': 'PEG', 'residue_number': 10, 'insertion_code': ' ', 'chain_id': '1', 'match_info': '{"10": ["PEGMA_2-site", 30], "12": ["PEGMA_2-site", 30]}', 'substructure_query_id': 30, 'extended_name': 'PEGMA_2-site'}, 185: {'residue_name': 'PEG', 'residue_number': 10, 'insertion_code': ' ', 'chain_id': '1', 'match_info': '{"10": ["PEGMA_2-site", 31], "12": ["PEGMA_2-site", 31]}', 'substructure_query_id': 31, 'extended_name': 'PEGMA_2-site'}, 186: {'residue_name': 'PEG', 'residue_number': 10, 'insertion_code': ' ', 'chain_id': '1', 'match_info': '{"10": ["PEGMA_2-site", 32], "12": ["PEGMA_2-site", 32]}', 'substructure_query_id': 32, 'extended_name': 'PEGMA_2-site'}, 187: {'residue_name': 'PEG', 'residue_number': 10, 'insertion_code': ' ', 'chain_id': '1', 'match_info': '{"10": ["PEGMA_2-site", 33], "12": ["PEGMA_2-site", 33]}', 'substructure_query_id': 33, 'extended_name': 'PEGMA_2-site'}, 188: {'residue_name': 'PEG', 'residue_number': 10, 'insertion_code': ' ', 'chain_id': '1', 'match_info': '{"10": ["PEGMA_2-site", 34], "12": ["PEGMA_2-site", 34]}', 'substructure_query_id': 34, 'extended_name': 'PEGMA_2-site'}, 189: {'residue_name': 'PEG', 'residue_number': 10, 'insertion_code': ' ', 'chain_id': '1', 'match_info': '{"10": ["PEGMA_2-site", 35], "12": ["PEGMA_2-site", 35]}', 'substructure_query_id': 35, 'extended_name': 'PEGMA_2-site'}, 190: {'residue_name': 'PEG', 'residue_number': 10, 'insertion_code': ' ', 'chain_id': '1', 'match_info': '{"10": ["PEGMA_2-site", 36], "12": ["PEGMA_2-site", 36]}', 'substructure_query_id': 36, 'extended_name': 'PEGMA_2-site'}, 191: {'residue_name': 'PEG', 'residue_number': 10, 'insertion_code': ' ', 'chain_id': '1', 'match_info': '{"10": ["PEGMA_2-site", 37], "12": ["PEGMA_2-site", 37]}', 'substructure_query_id': 37, 'extended_name': 'PEGMA_2-site'}, 192: {'residue_name': 'PEG', 'residue_number': 10, 'insertion_code': ' ', 'chain_id': '1', 'match_info': '{"10": ["PEGMA_2-site", 38], "12": ["PEGMA_2-site", 38]}', 'substructure_query_id': 38, 'extended_name': 'PEGMA_2-site'}, 193: {'residue_name': 'PEG', 'residue_number': 10, 'insertion_code': ' ', 'chain_id': '1', 'match_info': '{"10": ["PEGMA_2-site", 39], "12": ["PEGMA_2-site", 39]}', 'substructure_query_id': 39, 'extended_name': 'PEGMA_2-site'}, 194: {'residue_name': 'PEG', 'residue_number': 10, 'insertion_code': ' ', 'chain_id': '1', 'match_info': '{"10": ["PEGMA_2-site", 40], "12": ["PEGMA_2-site", 40]}', 'substructure_query_id': 40, 'extended_name': 'PEGMA_2-site'}, 195: {'residue_name': 'PEG', 'residue_number': 10, 'insertion_code': ' ', 'chain_id': '1', 'match_info': '{"10": ["PEGMA_2-site", 41], "12": ["PEGMA_2-site", 41]}', 'substructure_query_id': 41, 'extended_name': 'PEGMA_2-site'}, 196: {'residue_name': 'PEG', 'residue_number': 10, 'insertion_code': ' ', 'chain_id': '1', 'match_info': '{"10": ["PEGMA_2-site", 42], "12": ["PEGMA_2-site", 42]}', 'substructure_query_id': 42, 'extended_name': 'PEGMA_2-site'}, 197: {'residue_name': 'PEG', 'residue_number': 10, 'insertion_code': ' ', 'chain_id': '1', 'match_info': '{"10": ["PEGMA_2-site", 43], "12": ["PEGMA_2-site", 43]}', 'substructure_query_id': 43, 'extended_name': 'PEGMA_2-site'}, 198: {'residue_name': 'PEG', 'residue_number': 10, 'insertion_code': ' ', 'chain_id': '1', 'match_info': '{"10": ["PEGMA_2-site", 44], "12": ["PEGMA_2-site", 44]}', 'substructure_query_id': 44, 'extended_name': 'PEGMA_2-site'}, 199: {'residue_name': 'PEG', 'residue_number': 10, 'insertion_code': ' ', 'chain_id': '1', 'match_info': '{"10": ["PEGMA_2-site", 45], "12": ["PEGMA_2-site", 45]}', 'substructure_query_id': 45, 'extended_name': 'PEGMA_2-site'}, 200: {'residue_name': 'PEG', 'residue_number': 10, 'insertion_code': ' ', 'chain_id': '1', 'match_info': '{"10": ["PEGMA_2-site", 46], "12": ["PEGMA_2-site", 46]}', 'substructure_query_id': 46, 'extended_name': 'PEGMA_2-site'}, 201: {'residue_name': 'PEG', 'residue_number': 10, 'insertion_code': ' ', 'chain_id': '1', 'match_info': '{"10": ["PEGMA_2-site", 47], "12": ["PEGMA_2-site", 47]}', 'substructure_query_id': 47, 'extended_name': 'PEGMA_2-site'}, 202: {'residue_name': 'PEG', 'residue_number': 10, 'insertion_code': ' ', 'chain_id': '1', 'match_info': '{"10": ["PEGMA_2-site", 48], "12": ["PEGMA_2-site", 48]}', 'substructure_query_id': 48, 'extended_name': 'PEGMA_2-site'}, 203: {'residue_name': 'PEG', 'residue_number': 10, 'insertion_code': ' ', 'chain_id': '1', 'match_info': '{"10": ["PEGMA_2-site", 49], "12": ["PEGMA_2-site", 49]}', 'substructure_query_id': 49, 'extended_name': 'PEGMA_2-site'}, 204: {'residue_name': 'PEG', 'residue_number': 10, 'insertion_code': ' ', 'chain_id': '1', 'match_info': '{"10": ["PEGMA_2-site", 50], "12": ["PEGMA_2-site", 50]}', 'substructure_query_id': 50, 'extended_name': 'PEGMA_2-site'}, 205: {'residue_name': 'PEG', 'residue_number': 10, 'insertion_code': ' ', 'chain_id': '1', 'match_info': '{"10": ["PEGMA_2-site", 51], "12": ["PEGMA_2-site", 51]}', 'substructure_query_id': 51, 'extended_name': 'PEGMA_2-site'}, 206: {'residue_name': 'PEG', 'residue_number': 10, 'insertion_code': ' ', 'chain_id': '1', 'match_info': '{"10": ["PEGMA_2-site", 52], "12": ["PEGMA_2-site", 52]}', 'substructure_query_id': 52, 'extended_name': 'PEGMA_2-site'}, 207: {'residue_name': 'PEG', 'residue_number': 10, 'insertion_code': ' ', 'chain_id': '1', 'match_info': '{"10": ["PEGMA_2-site", 53], "12": ["PEGMA_2-site", 53]}', 'substructure_query_id': 53, 'extended_name': 'PEGMA_2-site'}, 208: {'residue_name': 'PEG', 'residue_number': 10, 'insertion_code': ' ', 'chain_id': '1', 'match_info': '{"10": ["PEGMA_2-site", 54], "12": ["PEGMA_2-site", 54]}', 'substructure_query_id': 54, 'extended_name': 'PEGMA_2-site'}, 209: {'residue_name': 'PEG', 'residue_number': 10, 'insertion_code': ' ', 'chain_id': '1', 'match_info': '{"10": ["PEGMA_2-site", 55], "12": ["PEGMA_2-site", 55]}', 'substructure_query_id': 55, 'extended_name': 'PEGMA_2-site'}, 210: {'residue_name': 'PEG', 'residue_number': 10, 'insertion_code': ' ', 'chain_id': '1', 'match_info': '{"10": ["PEGMA_2-site", 56], "12": ["PEGMA_2-site", 56]}', 'substructure_query_id': 56, 'extended_name': 'PEGMA_2-site'}, 211: {'residue_name': 'PEG', 'residue_number': 10, 'insertion_code': ' ', 'chain_id': '1', 'match_info': '{"10": ["PEGMA_2-site", 57], "12": ["PEGMA_2-site", 57]}', 'substructure_query_id': 57, 'extended_name': 'PEGMA_2-site'}, 212: {'residue_name': 'PEG', 'residue_number': 10, 'insertion_code': ' ', 'chain_id': '1', 'match_info': '{"10": ["PEGMA_2-site", 58], "12": ["PEGMA_2-site", 58]}', 'substructure_query_id': 58, 'extended_name': 'PEGMA_2-site'}, 213: {'residue_name': 'PEG', 'residue_number': 10, 'insertion_code': ' ', 'chain_id': '1', 'match_info': '{"10": ["PEGMA_2-site", 59], "12": ["PEGMA_2-site", 59]}', 'substructure_query_id': 59, 'extended_name': 'PEGMA_2-site'}, 214: {'residue_name': 'PEG', 'residue_number': 10, 'insertion_code': ' ', 'chain_id': '1', 'match_info': '{"10": ["PEGMA_2-site", 60], "12": ["PEGMA_2-site", 60]}', 'substructure_query_id': 60, 'extended_name': 'PEGMA_2-site'}, 215: {'residue_name': 'PEG', 'residue_number': 10, 'insertion_code': ' ', 'chain_id': '1', 'match_info': '{"10": ["PEGMA_2-site", 61], "12": ["PEGMA_2-site", 61]}', 'substructure_query_id': 61, 'extended_name': 'PEGMA_2-site'}, 216: {'residue_name': 'PEG', 'residue_number': 10, 'insertion_code': ' ', 'chain_id': '1', 'match_info': '{"6": ["SBMA_2-site", 39], "10": ["PEGMA_2-site", 62]}', 'substructure_query_id': 62, 'extended_name': 'PEGMA_2-site'}, 217: {'residue_name': 'PEG', 'residue_number': 10, 'insertion_code': ' ', 'chain_id': '1', 'match_info': '{"6": ["SBMA_2-site", 40], "10": ["PEGMA_2-site", 63]}', 'substructure_query_id': 63, 'extended_name': 'PEGMA_2-site'}, 218: {'residue_name': 'PEG', 'residue_number': 11, 'insertion_code': ' ', 'chain_id': '1', 'match_info': '{"11": ["PEGMA_2-site", 1], "12": ["PEGMA_2-site", 1]}', 'substructure_query_id': 1, 'extended_name': 'PEGMA_2-site'}, 219: {'residue_name': 'PEG', 'residue_number': 11, 'insertion_code': ' ', 'chain_id': '1', 'match_info': '{"11": ["PEGMA_2-site", 2], "13": ["PEGMA_2-site", 2]}', 'substructure_query_id': 2, 'extended_name': 'PEGMA_2-site'}, 220: {'residue_name': 'PEG', 'residue_number': 11, 'insertion_code': ' ', 'chain_id': '1', 'match_info': '{"11": ["PEGMA_2-site", 4], "13": ["PEGMA_2-site", 4]}', 'substructure_query_id': 4, 'extended_name': 'PEGMA_2-site'}, 221: {'residue_name': 'PEG', 'residue_number': 11, 'insertion_code': ' ', 'chain_id': '1', 'match_info': '{"11": ["PEGMA_2-site", 5], "13": ["PEGMA_2-site", 5]}', 'substructure_query_id': 5, 'extended_name': 'PEGMA_2-site'}, 222: {'residue_name': 'PEG', 'residue_number': 11, 'insertion_code': ' ', 'chain_id': '1', 'match_info': '{"11": ["PEGMA_2-site", 6], "13": ["PEGMA_2-site", 6]}', 'substructure_query_id': 6, 'extended_name': 'PEGMA_2-site'}, 223: {'residue_name': 'PEG', 'residue_number': 11, 'insertion_code': ' ', 'chain_id': '1', 'match_info': '{"11": ["PEGMA_2-site", 7], "13": ["PEGMA_2-site", 7]}', 'substructure_query_id': 7, 'extended_name': 'PEGMA_2-site'}, 224: {'residue_name': 'PEG', 'residue_number': 11, 'insertion_code': ' ', 'chain_id': '1', 'match_info': '{"11": ["PEGMA_2-site", 8], "13": ["PEGMA_2-site", 8]}', 'substructure_query_id': 8, 'extended_name': 'PEGMA_2-site'}, 225: {'residue_name': 'PEG', 'residue_number': 11, 'insertion_code': ' ', 'chain_id': '1', 'match_info': '{"11": ["PEGMA_2-site", 9], "13": ["PEGMA_2-site", 9]}', 'substructure_query_id': 9, 'extended_name': 'PEGMA_2-site'}, 226: {'residue_name': 'PEG', 'residue_number': 11, 'insertion_code': ' ', 'chain_id': '1', 'match_info': '{"11": ["PEGMA_2-site", 10], "13": ["PEGMA_2-site", 10]}', 'substructure_query_id': 10, 'extended_name': 'PEGMA_2-site'}, 227: {'residue_name': 'PEG', 'residue_number': 11, 'insertion_code': ' ', 'chain_id': '1', 'match_info': '{"11": ["PEGMA_2-site", 11], "13": ["PEGMA_2-site", 11]}', 'substructure_query_id': 11, 'extended_name': 'PEGMA_2-site'}, 228: {'residue_name': 'PEG', 'residue_number': 11, 'insertion_code': ' ', 'chain_id': '1', 'match_info': '{"11": ["PEGMA_2-site", 12], "13": ["PEGMA_2-site", 12]}', 'substructure_query_id': 12, 'extended_name': 'PEGMA_2-site'}, 229: {'residue_name': 'PEG', 'residue_number': 11, 'insertion_code': ' ', 'chain_id': '1', 'match_info': '{"11": ["PEGMA_2-site", 13], "13": ["PEGMA_2-site", 13]}', 'substructure_query_id': 13, 'extended_name': 'PEGMA_2-site'}, 230: {'residue_name': 'PEG', 'residue_number': 11, 'insertion_code': ' ', 'chain_id': '1', 'match_info': '{"11": ["PEGMA_2-site", 14], "13": ["PEGMA_2-site", 14]}', 'substructure_query_id': 14, 'extended_name': 'PEGMA_2-site'}, 231: {'residue_name': 'PEG', 'residue_number': 11, 'insertion_code': ' ', 'chain_id': '1', 'match_info': '{"11": ["PEGMA_2-site", 15], "13": ["PEGMA_2-site", 15]}', 'substructure_query_id': 15, 'extended_name': 'PEGMA_2-site'}, 232: {'residue_name': 'PEG', 'residue_number': 11, 'insertion_code': ' ', 'chain_id': '1', 'match_info': '{"11": ["PEGMA_2-site", 16], "13": ["PEGMA_2-site", 16]}', 'substructure_query_id': 16, 'extended_name': 'PEGMA_2-site'}, 233: {'residue_name': 'PEG', 'residue_number': 11, 'insertion_code': ' ', 'chain_id': '1', 'match_info': '{"11": ["PEGMA_2-site", 17], "13": ["PEGMA_2-site", 17]}', 'substructure_query_id': 17, 'extended_name': 'PEGMA_2-site'}, 234: {'residue_name': 'PEG', 'residue_number': 11, 'insertion_code': ' ', 'chain_id': '1', 'match_info': '{"11": ["PEGMA_2-site", 18], "13": ["PEGMA_2-site", 18]}', 'substructure_query_id': 18, 'extended_name': 'PEGMA_2-site'}, 235: {'residue_name': 'PEG', 'residue_number': 11, 'insertion_code': ' ', 'chain_id': '1', 'match_info': '{"11": ["PEGMA_2-site", 19], "13": ["PEGMA_2-site", 19]}', 'substructure_query_id': 19, 'extended_name': 'PEGMA_2-site'}, 236: {'residue_name': 'PEG', 'residue_number': 11, 'insertion_code': ' ', 'chain_id': '1', 'match_info': '{"11": ["PEGMA_2-site", 20], "13": ["PEGMA_2-site", 20]}', 'substructure_query_id': 20, 'extended_name': 'PEGMA_2-site'}, 237: {'residue_name': 'PEG', 'residue_number': 11, 'insertion_code': ' ', 'chain_id': '1', 'match_info': '{"11": ["PEGMA_2-site", 21], "13": ["PEGMA_2-site", 21]}', 'substructure_query_id': 21, 'extended_name': 'PEGMA_2-site'}, 238: {'residue_name': 'PEG', 'residue_number': 11, 'insertion_code': ' ', 'chain_id': '1', 'match_info': '{"11": ["PEGMA_2-site", 22], "13": ["PEGMA_2-site", 22]}', 'substructure_query_id': 22, 'extended_name': 'PEGMA_2-site'}, 239: {'residue_name': 'PEG', 'residue_number': 11, 'insertion_code': ' ', 'chain_id': '1', 'match_info': '{"11": ["PEGMA_2-site", 23], "13": ["PEGMA_2-site", 23]}', 'substructure_query_id': 23, 'extended_name': 'PEGMA_2-site'}, 240: {'residue_name': 'PEG', 'residue_number': 11, 'insertion_code': ' ', 'chain_id': '1', 'match_info': '{"11": ["PEGMA_2-site", 24], "13": ["PEGMA_2-site", 24]}', 'substructure_query_id': 24, 'extended_name': 'PEGMA_2-site'}, 241: {'residue_name': 'PEG', 'residue_number': 11, 'insertion_code': ' ', 'chain_id': '1', 'match_info': '{"11": ["PEGMA_2-site", 25], "13": ["PEGMA_2-site", 25]}', 'substructure_query_id': 25, 'extended_name': 'PEGMA_2-site'}, 242: {'residue_name': 'PEG', 'residue_number': 11, 'insertion_code': ' ', 'chain_id': '1', 'match_info': '{"11": ["PEGMA_2-site", 26], "13": ["PEGMA_2-site", 26]}', 'substructure_query_id': 26, 'extended_name': 'PEGMA_2-site'}, 243: {'residue_name': 'PEG', 'residue_number': 11, 'insertion_code': ' ', 'chain_id': '1', 'match_info': '{"11": ["PEGMA_2-site", 27], "13": ["PEGMA_2-site", 27]}', 'substructure_query_id': 27, 'extended_name': 'PEGMA_2-site'}, 244: {'residue_name': 'PEG', 'residue_number': 11, 'insertion_code': ' ', 'chain_id': '1', 'match_info': '{"11": ["PEGMA_2-site", 28], "13": ["PEGMA_2-site", 28]}', 'substructure_query_id': 28, 'extended_name': 'PEGMA_2-site'}, 245: {'residue_name': 'PEG', 'residue_number': 11, 'insertion_code': ' ', 'chain_id': '1', 'match_info': '{"11": ["PEGMA_2-site", 29], "13": ["PEGMA_2-site", 29]}', 'substructure_query_id': 29, 'extended_name': 'PEGMA_2-site'}, 246: {'residue_name': 'PEG', 'residue_number': 11, 'insertion_code': ' ', 'chain_id': '1', 'match_info': '{"11": ["PEGMA_2-site", 30], "13": ["PEGMA_2-site", 30]}', 'substructure_query_id': 30, 'extended_name': 'PEGMA_2-site'}, 247: {'residue_name': 'PEG', 'residue_number': 11, 'insertion_code': ' ', 'chain_id': '1', 'match_info': '{"11": ["PEGMA_2-site", 31], "13": ["PEGMA_2-site", 31]}', 'substructure_query_id': 31, 'extended_name': 'PEGMA_2-site'}, 248: {'residue_name': 'PEG', 'residue_number': 11, 'insertion_code': ' ', 'chain_id': '1', 'match_info': '{"11": ["PEGMA_2-site", 32], "13": ["PEGMA_2-site", 32]}', 'substructure_query_id': 32, 'extended_name': 'PEGMA_2-site'}, 249: {'residue_name': 'PEG', 'residue_number': 11, 'insertion_code': ' ', 'chain_id': '1', 'match_info': '{"11": ["PEGMA_2-site", 33], "13": ["PEGMA_2-site", 33]}', 'substructure_query_id': 33, 'extended_name': 'PEGMA_2-site'}, 250: {'residue_name': 'PEG', 'residue_number': 11, 'insertion_code': ' ', 'chain_id': '1', 'match_info': '{"11": ["PEGMA_2-site", 34], "13": ["PEGMA_2-site", 34]}', 'substructure_query_id': 34, 'extended_name': 'PEGMA_2-site'}, 251: {'residue_name': 'PEG', 'residue_number': 11, 'insertion_code': ' ', 'chain_id': '1', 'match_info': '{"11": ["PEGMA_2-site", 35], "13": ["PEGMA_2-site", 35]}', 'substructure_query_id': 35, 'extended_name': 'PEGMA_2-site'}, 252: {'residue_name': 'PEG', 'residue_number': 11, 'insertion_code': ' ', 'chain_id': '1', 'match_info': '{"11": ["PEGMA_2-site", 36], "13": ["PEGMA_2-site", 36]}', 'substructure_query_id': 36, 'extended_name': 'PEGMA_2-site'}, 253: {'residue_name': 'PEG', 'residue_number': 11, 'insertion_code': ' ', 'chain_id': '1', 'match_info': '{"11": ["PEGMA_2-site", 37], "13": ["PEGMA_2-site", 37]}', 'substructure_query_id': 37, 'extended_name': 'PEGMA_2-site'}, 254: {'residue_name': 'PEG', 'residue_number': 11, 'insertion_code': ' ', 'chain_id': '1', 'match_info': '{"11": ["PEGMA_2-site", 38], "13": ["PEGMA_2-site", 38]}', 'substructure_query_id': 38, 'extended_name': 'PEGMA_2-site'}, 255: {'residue_name': 'PEG', 'residue_number': 11, 'insertion_code': ' ', 'chain_id': '1', 'match_info': '{"11": ["PEGMA_2-site", 39], "13": ["PEGMA_2-site", 39]}', 'substructure_query_id': 39, 'extended_name': 'PEGMA_2-site'}, 256: {'residue_name': 'PEG', 'residue_number': 11, 'insertion_code': ' ', 'chain_id': '1', 'match_info': '{"11": ["PEGMA_2-site", 40], "13": ["PEGMA_2-site", 40]}', 'substructure_query_id': 40, 'extended_name': 'PEGMA_2-site'}, 257: {'residue_name': 'PEG', 'residue_number': 11, 'insertion_code': ' ', 'chain_id': '1', 'match_info': '{"11": ["PEGMA_2-site", 41], "13": ["PEGMA_2-site", 41]}', 'substructure_query_id': 41, 'extended_name': 'PEGMA_2-site'}, 258: {'residue_name': 'PEG', 'residue_number': 11, 'insertion_code': ' ', 'chain_id': '1', 'match_info': '{"11": ["PEGMA_2-site", 42], "13": ["PEGMA_2-site", 42]}', 'substructure_query_id': 42, 'extended_name': 'PEGMA_2-site'}, 259: {'residue_name': 'PEG', 'residue_number': 11, 'insertion_code': ' ', 'chain_id': '1', 'match_info': '{"11": ["PEGMA_2-site", 43], "13": ["PEGMA_2-site", 43]}', 'substructure_query_id': 43, 'extended_name': 'PEGMA_2-site'}, 260: {'residue_name': 'PEG', 'residue_number': 11, 'insertion_code': ' ', 'chain_id': '1', 'match_info': '{"11": ["PEGMA_2-site", 44], "13": ["PEGMA_2-site", 44]}', 'substructure_query_id': 44, 'extended_name': 'PEGMA_2-site'}, 261: {'residue_name': 'PEG', 'residue_number': 11, 'insertion_code': ' ', 'chain_id': '1', 'match_info': '{"11": ["PEGMA_2-site", 45], "13": ["PEGMA_2-site", 45]}', 'substructure_query_id': 45, 'extended_name': 'PEGMA_2-site'}, 262: {'residue_name': 'PEG', 'residue_number': 11, 'insertion_code': ' ', 'chain_id': '1', 'match_info': '{"11": ["PEGMA_2-site", 46], "13": ["PEGMA_2-site", 46]}', 'substructure_query_id': 46, 'extended_name': 'PEGMA_2-site'}, 263: {'residue_name': 'PEG', 'residue_number': 11, 'insertion_code': ' ', 'chain_id': '1', 'match_info': '{"11": ["PEGMA_2-site", 47], "13": ["PEGMA_2-site", 47]}', 'substructure_query_id': 47, 'extended_name': 'PEGMA_2-site'}, 264: {'residue_name': 'PEG', 'residue_number': 11, 'insertion_code': ' ', 'chain_id': '1', 'match_info': '{"11": ["PEGMA_2-site", 48], "13": ["PEGMA_2-site", 48]}', 'substructure_query_id': 48, 'extended_name': 'PEGMA_2-site'}, 265: {'residue_name': 'PEG', 'residue_number': 11, 'insertion_code': ' ', 'chain_id': '1', 'match_info': '{"11": ["PEGMA_2-site", 49], "13": ["PEGMA_2-site", 49]}', 'substructure_query_id': 49, 'extended_name': 'PEGMA_2-site'}, 266: {'residue_name': 'PEG', 'residue_number': 11, 'insertion_code': ' ', 'chain_id': '1', 'match_info': '{"11": ["PEGMA_2-site", 50], "13": ["PEGMA_2-site", 50]}', 'substructure_query_id': 50, 'extended_name': 'PEGMA_2-site'}, 267: {'residue_name': 'PEG', 'residue_number': 11, 'insertion_code': ' ', 'chain_id': '1', 'match_info': '{"11": ["PEGMA_2-site", 51], "13": ["PEGMA_2-site", 51]}', 'substructure_query_id': 51, 'extended_name': 'PEGMA_2-site'}, 268: {'residue_name': 'PEG', 'residue_number': 11, 'insertion_code': ' ', 'chain_id': '1', 'match_info': '{"11": ["PEGMA_2-site", 52], "13": ["PEGMA_2-site", 52]}', 'substructure_query_id': 52, 'extended_name': 'PEGMA_2-site'}, 269: {'residue_name': 'PEG', 'residue_number': 11, 'insertion_code': ' ', 'chain_id': '1', 'match_info': '{"11": ["PEGMA_2-site", 53], "13": ["PEGMA_2-site", 53]}', 'substructure_query_id': 53, 'extended_name': 'PEGMA_2-site'}, 270: {'residue_name': 'PEG', 'residue_number': 11, 'insertion_code': ' ', 'chain_id': '1', 'match_info': '{"11": ["PEGMA_2-site", 54], "13": ["PEGMA_2-site", 54]}', 'substructure_query_id': 54, 'extended_name': 'PEGMA_2-site'}, 271: {'residue_name': 'PEG', 'residue_number': 11, 'insertion_code': ' ', 'chain_id': '1', 'match_info': '{"11": ["PEGMA_2-site", 55], "13": ["PEGMA_2-site", 55]}', 'substructure_query_id': 55, 'extended_name': 'PEGMA_2-site'}, 272: {'residue_name': 'PEG', 'residue_number': 11, 'insertion_code': ' ', 'chain_id': '1', 'match_info': '{"11": ["PEGMA_2-site", 56], "13": ["PEGMA_2-site", 56]}', 'substructure_query_id': 56, 'extended_name': 'PEGMA_2-site'}, 273: {'residue_name': 'PEG', 'residue_number': 11, 'insertion_code': ' ', 'chain_id': '1', 'match_info': '{"11": ["PEGMA_2-site", 57], "13": ["PEGMA_2-site", 57]}', 'substructure_query_id': 57, 'extended_name': 'PEGMA_2-site'}, 274: {'residue_name': 'PEG', 'residue_number': 11, 'insertion_code': ' ', 'chain_id': '1', 'match_info': '{"11": ["PEGMA_2-site", 58], "13": ["PEGMA_2-site", 58]}', 'substructure_query_id': 58, 'extended_name': 'PEGMA_2-site'}, 275: {'residue_name': 'PEG', 'residue_number': 11, 'insertion_code': ' ', 'chain_id': '1', 'match_info': '{"11": ["PEGMA_2-site", 59], "13": ["PEGMA_2-site", 59]}', 'substructure_query_id': 59, 'extended_name': 'PEGMA_2-site'}, 276: {'residue_name': 'PEG', 'residue_number': 11, 'insertion_code': ' ', 'chain_id': '1', 'match_info': '{"11": ["PEGMA_2-site", 60], "13": ["PEGMA_2-site", 60]}', 'substructure_query_id': 60, 'extended_name': 'PEGMA_2-site'}, 277: {'residue_name': 'PEG', 'residue_number': 11, 'insertion_code': ' ', 'chain_id': '1', 'match_info': '{"11": ["PEGMA_2-site", 61], "13": ["PEGMA_2-site", 61]}', 'substructure_query_id': 61, 'extended_name': 'PEGMA_2-site'}, 278: {'residue_name': 'PEG', 'residue_number': 11, 'insertion_code': ' ', 'chain_id': '1', 'match_info': '{"11": ["PEGMA_2-site", 62], "12": ["PEGMA_2-site", 62]}', 'substructure_query_id': 62, 'extended_name': 'PEGMA_2-site'}, 279: {'residue_name': 'PEG', 'residue_number': 11, 'insertion_code': ' ', 'chain_id': '1', 'match_info': '{"11": ["PEGMA_2-site", 63], "12": ["PEGMA_2-site", 63]}', 'substructure_query_id': 63, 'extended_name': 'PEGMA_2-site'}, 280: {'residue_name': 'NHS', 'residue_number': 15, 'insertion_code': ' ', 'chain_id': '1', 'match_info': '{"13": ["PEGMA_2-site", 1], "15": ["NHS_2-site", 1]}', 'substructure_query_id': 1, 'extended_name': 'NHS_2-site'}, 281: {'residue_name': 'NHS', 'residue_number': 15, 'insertion_code': ' ', 'chain_id': '1', 'match_info': '{"15": ["NHS_2-site", 2], "16": ["NHS_2-site", 2]}', 'substructure_query_id': 2, 'extended_name': 'NHS_2-site'}, 282: {'residue_name': 'NHS', 'residue_number': 15, 'insertion_code': ' ', 'chain_id': '1', 'match_info': '{"15": ["NHS_2-site", 4], "16": ["NHS_2-site", 4]}', 'substructure_query_id': 4, 'extended_name': 'NHS_2-site'}, 283: {'residue_name': 'NHS', 'residue_number': 15, 'insertion_code': ' ', 'chain_id': '1', 'match_info': '{"15": ["NHS_2-site", 5], "16": ["NHS_2-site", 5]}', 'substructure_query_id': 5, 'extended_name': 'NHS_2-site'}, 284: {'residue_name': 'NHS', 'residue_number': 15, 'insertion_code': ' ', 'chain_id': '1', 'match_info': '{"15": ["NHS_2-site", 6], "16": ["NHS_2-site", 6]}', 'substructure_query_id': 6, 'extended_name': 'NHS_2-site'}, 285: {'residue_name': 'NHS', 'residue_number': 15, 'insertion_code': ' ', 'chain_id': '1', 'match_info': '{"15": ["NHS_2-site", 7], "16": ["NHS_2-site", 7]}', 'substructure_query_id': 7, 'extended_name': 'NHS_2-site'}, 286: {'residue_name': 'NHS', 'residue_number': 15, 'insertion_code': ' ', 'chain_id': '1', 'match_info': '{"15": ["NHS_2-site", 8], "16": ["NHS_2-site", 8]}', 'substructure_query_id': 8, 'extended_name': 'NHS_2-site'}, 287: {'residue_name': 'NHS', 'residue_number': 15, 'insertion_code': ' ', 'chain_id': '1', 'match_info': '{"15": ["NHS_2-site", 9], "16": ["NHS_2-site", 9]}', 'substructure_query_id': 9, 'extended_name': 'NHS_2-site'}, 288: {'residue_name': 'NHS', 'residue_number': 15, 'insertion_code': ' ', 'chain_id': '1', 'match_info': '{"15": ["NHS_2-site", 10], "16": ["NHS_2-site", 10]}', 'substructure_query_id': 10, 'extended_name': 'NHS_2-site'}, 289: {'residue_name': 'NHS', 'residue_number': 15, 'insertion_code': ' ', 'chain_id': '1', 'match_info': '{"15": ["NHS_2-site", 11], "16": ["NHS_2-site", 11]}', 'substructure_query_id': 11, 'extended_name': 'NHS_2-site'}, 290: {'residue_name': 'NHS', 'residue_number': 15, 'insertion_code': ' ', 'chain_id': '1', 'match_info': '{"15": ["NHS_2-site", 12], "16": ["NHS_2-site", 12]}', 'substructure_query_id': 12, 'extended_name': 'NHS_2-site'}, 291: {'residue_name': 'NHS', 'residue_number': 15, 'insertion_code': ' ', 'chain_id': '1', 'match_info': '{"15": ["NHS_2-site", 13], "16": ["NHS_2-site", 13]}', 'substructure_query_id': 13, 'extended_name': 'NHS_2-site'}, 292: {'residue_name': 'NHS', 'residue_number': 15, 'insertion_code': ' ', 'chain_id': '1', 'match_info': '{"15": ["NHS_2-site", 14], "16": ["NHS_2-site", 14]}', 'substructure_query_id': 14, 'extended_name': 'NHS_2-site'}, 293: {'residue_name': 'NHS', 'residue_number': 15, 'insertion_code': ' ', 'chain_id': '1', 'match_info': '{"15": ["NHS_2-site", 15], "16": ["NHS_2-site", 15]}', 'substructure_query_id': 15, 'extended_name': 'NHS_2-site'}, 294: {'residue_name': 'NHS', 'residue_number': 15, 'insertion_code': ' ', 'chain_id': '1', 'match_info': '{"15": ["NHS_2-site", 16], "16": ["NHS_2-site", 16]}', 'substructure_query_id': 16, 'extended_name': 'NHS_2-site'}, 295: {'residue_name': 'NHS', 'residue_number': 15, 'insertion_code': ' ', 'chain_id': '1', 'match_info': '{"15": ["NHS_2-site", 17], "16": ["NHS_2-site", 17]}', 'substructure_query_id': 17, 'extended_name': 'NHS_2-site'}, 296: {'residue_name': 'NHS', 'residue_number': 15, 'insertion_code': ' ', 'chain_id': '1', 'match_info': '{"15": ["NHS_2-site", 18], "16": ["NHS_2-site", 18]}', 'substructure_query_id': 18, 'extended_name': 'NHS_2-site'}, 297: {'residue_name': 'NHS', 'residue_number': 15, 'insertion_code': ' ', 'chain_id': '1', 'match_info': '{"15": ["NHS_2-site", 19], "16": ["NHS_2-site", 19]}', 'substructure_query_id': 19, 'extended_name': 'NHS_2-site'}, 298: {'residue_name': 'NHS', 'residue_number': 15, 'insertion_code': ' ', 'chain_id': '1', 'match_info': '{"15": ["NHS_2-site", 20], "16": ["NHS_2-site", 20]}', 'substructure_query_id': 20, 'extended_name': 'NHS_2-site'}, 299: {'residue_name': 'NHS', 'residue_number': 15, 'insertion_code': ' ', 'chain_id': '1', 'match_info': '{"15": ["NHS_2-site", 21], "16": ["NHS_2-site", 21]}', 'substructure_query_id': 21, 'extended_name': 'NHS_2-site'}, 300: {'residue_name': 'NHS', 'residue_number': 15, 'insertion_code': ' ', 'chain_id': '1', 'match_info': '{"13": ["PEGMA_2-site", 62], "15": ["NHS_2-site", 22]}', 'substructure_query_id': 22, 'extended_name': 'NHS_2-site'}, 301: {'residue_name': 'NHS', 'residue_number': 15, 'insertion_code': ' ', 'chain_id': '1', 'match_info': '{"13": ["PEGMA_2-site", 63], "15": ["NHS_2-site", 23]}', 'substructure_query_id': 23, 'extended_name': 'NHS_2-site'}, 302: {'residue_name': 'PEG', 'residue_number': 14, 'insertion_code': ' ', 'chain_id': '1', 'match_info': '{"14": ["PEGMA_2-site", 1], "16": ["NHS_2-site", 1]}', 'substructure_query_id': 1, 'extended_name': 'PEGMA_2-site'}, 303: {'residue_name': 'PEG', 'residue_number': 14, 'insertion_code': ' ', 'chain_id': '1', 'match_info': '{"14": ["PEGMA_2-site", 2]}', 'substructure_query_id': 2, 'extended_name': 'PEGMA_2-site'}, 304: {'residue_name': 'PEG', 'residue_number': 14, 'insertion_code': ' ', 'chain_id': '1', 'match_info': '{"14": ["PEGMA_2-site", 4]}', 'substructure_query_id': 4, 'extended_name': 'PEGMA_2-site'}, 305: {'residue_name': 'PEG', 'residue_number': 14, 'insertion_code': ' ', 'chain_id': '1', 'match_info': '{"14": ["PEGMA_2-site", 5]}', 'substructure_query_id': 5, 'extended_name': 'PEGMA_2-site'}, 306: {'residue_name': 'PEG', 'residue_number': 14, 'insertion_code': ' ', 'chain_id': '1', 'match_info': '{"14": ["PEGMA_2-site", 6]}', 'substructure_query_id': 6, 'extended_name': 'PEGMA_2-site'}, 307: {'residue_name': 'PEG', 'residue_number': 14, 'insertion_code': ' ', 'chain_id': '1', 'match_info': '{"14": ["PEGMA_2-site", 7]}', 'substructure_query_id': 7, 'extended_name': 'PEGMA_2-site'}, 308: {'residue_name': 'PEG', 'residue_number': 14, 'insertion_code': ' ', 'chain_id': '1', 'match_info': '{"14": ["PEGMA_2-site", 8]}', 'substructure_query_id': 8, 'extended_name': 'PEGMA_2-site'}, 309: {'residue_name': 'PEG', 'residue_number': 14, 'insertion_code': ' ', 'chain_id': '1', 'match_info': '{"14": ["PEGMA_2-site", 9]}', 'substructure_query_id': 9, 'extended_name': 'PEGMA_2-site'}, 310: {'residue_name': 'PEG', 'residue_number': 14, 'insertion_code': ' ', 'chain_id': '1', 'match_info': '{"14": ["PEGMA_2-site", 10]}', 'substructure_query_id': 10, 'extended_name': 'PEGMA_2-site'}, 311: {'residue_name': 'PEG', 'residue_number': 14, 'insertion_code': ' ', 'chain_id': '1', 'match_info': '{"14": ["PEGMA_2-site", 11]}', 'substructure_query_id': 11, 'extended_name': 'PEGMA_2-site'}, 312: {'residue_name': 'PEG', 'residue_number': 14, 'insertion_code': ' ', 'chain_id': '1', 'match_info': '{"14": ["PEGMA_2-site", 12]}', 'substructure_query_id': 12, 'extended_name': 'PEGMA_2-site'}, 313: {'residue_name': 'PEG', 'residue_number': 14, 'insertion_code': ' ', 'chain_id': '1', 'match_info': '{"14": ["PEGMA_2-site", 13]}', 'substructure_query_id': 13, 'extended_name': 'PEGMA_2-site'}, 314: {'residue_name': 'PEG', 'residue_number': 14, 'insertion_code': ' ', 'chain_id': '1', 'match_info': '{"14": ["PEGMA_2-site", 14]}', 'substructure_query_id': 14, 'extended_name': 'PEGMA_2-site'}, 315: {'residue_name': 'PEG', 'residue_number': 14, 'insertion_code': ' ', 'chain_id': '1', 'match_info': '{"14": ["PEGMA_2-site", 15]}', 'substructure_query_id': 15, 'extended_name': 'PEGMA_2-site'}, 316: {'residue_name': 'PEG', 'residue_number': 14, 'insertion_code': ' ', 'chain_id': '1', 'match_info': '{"14": ["PEGMA_2-site", 16]}', 'substructure_query_id': 16, 'extended_name': 'PEGMA_2-site'}, 317: {'residue_name': 'PEG', 'residue_number': 14, 'insertion_code': ' ', 'chain_id': '1', 'match_info': '{"14": ["PEGMA_2-site", 17]}', 'substructure_query_id': 17, 'extended_name': 'PEGMA_2-site'}, 318: {'residue_name': 'PEG', 'residue_number': 14, 'insertion_code': ' ', 'chain_id': '1', 'match_info': '{"14": ["PEGMA_2-site", 18]}', 'substructure_query_id': 18, 'extended_name': 'PEGMA_2-site'}, 319: {'residue_name': 'PEG', 'residue_number': 14, 'insertion_code': ' ', 'chain_id': '1', 'match_info': '{"14": ["PEGMA_2-site", 19]}', 'substructure_query_id': 19, 'extended_name': 'PEGMA_2-site'}, 320: {'residue_name': 'PEG', 'residue_number': 14, 'insertion_code': ' ', 'chain_id': '1', 'match_info': '{"14": ["PEGMA_2-site", 20]}', 'substructure_query_id': 20, 'extended_name': 'PEGMA_2-site'}, 321: {'residue_name': 'PEG', 'residue_number': 14, 'insertion_code': ' ', 'chain_id': '1', 'match_info': '{"14": ["PEGMA_2-site", 21]}', 'substructure_query_id': 21, 'extended_name': 'PEGMA_2-site'}, 322: {'residue_name': 'PEG', 'residue_number': 14, 'insertion_code': ' ', 'chain_id': '1', 'match_info': '{"14": ["PEGMA_2-site", 22]}', 'substructure_query_id': 22, 'extended_name': 'PEGMA_2-site'}, 323: {'residue_name': 'PEG', 'residue_number': 14, 'insertion_code': ' ', 'chain_id': '1', 'match_info': '{"14": ["PEGMA_2-site", 23]}', 'substructure_query_id': 23, 'extended_name': 'PEGMA_2-site'}, 324: {'residue_name': 'PEG', 'residue_number': 14, 'insertion_code': ' ', 'chain_id': '1', 'match_info': '{"14": ["PEGMA_2-site", 24]}', 'substructure_query_id': 24, 'extended_name': 'PEGMA_2-site'}, 325: {'residue_name': 'PEG', 'residue_number': 14, 'insertion_code': ' ', 'chain_id': '1', 'match_info': '{"14": ["PEGMA_2-site", 25]}', 'substructure_query_id': 25, 'extended_name': 'PEGMA_2-site'}, 326: {'residue_name': 'PEG', 'residue_number': 14, 'insertion_code': ' ', 'chain_id': '1', 'match_info': '{"14": ["PEGMA_2-site", 26]}', 'substructure_query_id': 26, 'extended_name': 'PEGMA_2-site'}, 327: {'residue_name': 'PEG', 'residue_number': 14, 'insertion_code': ' ', 'chain_id': '1', 'match_info': '{"14": ["PEGMA_2-site", 27]}', 'substructure_query_id': 27, 'extended_name': 'PEGMA_2-site'}, 328: {'residue_name': 'PEG', 'residue_number': 14, 'insertion_code': ' ', 'chain_id': '1', 'match_info': '{"14": ["PEGMA_2-site", 28]}', 'substructure_query_id': 28, 'extended_name': 'PEGMA_2-site'}, 329: {'residue_name': 'PEG', 'residue_number': 14, 'insertion_code': ' ', 'chain_id': '1', 'match_info': '{"14": ["PEGMA_2-site", 29]}', 'substructure_query_id': 29, 'extended_name': 'PEGMA_2-site'}, 330: {'residue_name': 'PEG', 'residue_number': 14, 'insertion_code': ' ', 'chain_id': '1', 'match_info': '{"14": ["PEGMA_2-site", 30]}', 'substructure_query_id': 30, 'extended_name': 'PEGMA_2-site'}, 331: {'residue_name': 'PEG', 'residue_number': 14, 'insertion_code': ' ', 'chain_id': '1', 'match_info': '{"14": ["PEGMA_2-site", 31]}', 'substructure_query_id': 31, 'extended_name': 'PEGMA_2-site'}, 332: {'residue_name': 'PEG', 'residue_number': 14, 'insertion_code': ' ', 'chain_id': '1', 'match_info': '{"14": ["PEGMA_2-site", 32]}', 'substructure_query_id': 32, 'extended_name': 'PEGMA_2-site'}, 333: {'residue_name': 'PEG', 'residue_number': 14, 'insertion_code': ' ', 'chain_id': '1', 'match_info': '{"14": ["PEGMA_2-site", 33]}', 'substructure_query_id': 33, 'extended_name': 'PEGMA_2-site'}, 334: {'residue_name': 'PEG', 'residue_number': 14, 'insertion_code': ' ', 'chain_id': '1', 'match_info': '{"14": ["PEGMA_2-site", 34]}', 'substructure_query_id': 34, 'extended_name': 'PEGMA_2-site'}, 335: {'residue_name': 'PEG', 'residue_number': 14, 'insertion_code': ' ', 'chain_id': '1', 'match_info': '{"14": ["PEGMA_2-site", 35]}', 'substructure_query_id': 35, 'extended_name': 'PEGMA_2-site'}, 336: {'residue_name': 'PEG', 'residue_number': 14, 'insertion_code': ' ', 'chain_id': '1', 'match_info': '{"14": ["PEGMA_2-site", 36]}', 'substructure_query_id': 36, 'extended_name': 'PEGMA_2-site'}, 337: {'residue_name': 'PEG', 'residue_number': 14, 'insertion_code': ' ', 'chain_id': '1', 'match_info': '{"14": ["PEGMA_2-site", 37]}', 'substructure_query_id': 37, 'extended_name': 'PEGMA_2-site'}, 338: {'residue_name': 'PEG', 'residue_number': 14, 'insertion_code': ' ', 'chain_id': '1', 'match_info': '{"14": ["PEGMA_2-site", 38]}', 'substructure_query_id': 38, 'extended_name': 'PEGMA_2-site'}, 339: {'residue_name': 'PEG', 'residue_number': 14, 'insertion_code': ' ', 'chain_id': '1', 'match_info': '{"14": ["PEGMA_2-site", 39]}', 'substructure_query_id': 39, 'extended_name': 'PEGMA_2-site'}, 340: {'residue_name': 'PEG', 'residue_number': 14, 'insertion_code': ' ', 'chain_id': '1', 'match_info': '{"14": ["PEGMA_2-site", 40]}', 'substructure_query_id': 40, 'extended_name': 'PEGMA_2-site'}, 341: {'residue_name': 'PEG', 'residue_number': 14, 'insertion_code': ' ', 'chain_id': '1', 'match_info': '{"14": ["PEGMA_2-site", 41]}', 'substructure_query_id': 41, 'extended_name': 'PEGMA_2-site'}, 342: {'residue_name': 'PEG', 'residue_number': 14, 'insertion_code': ' ', 'chain_id': '1', 'match_info': '{"14": ["PEGMA_2-site", 42]}', 'substructure_query_id': 42, 'extended_name': 'PEGMA_2-site'}, 343: {'residue_name': 'PEG', 'residue_number': 14, 'insertion_code': ' ', 'chain_id': '1', 'match_info': '{"14": ["PEGMA_2-site", 43]}', 'substructure_query_id': 43, 'extended_name': 'PEGMA_2-site'}, 344: {'residue_name': 'PEG', 'residue_number': 14, 'insertion_code': ' ', 'chain_id': '1', 'match_info': '{"14": ["PEGMA_2-site", 44]}', 'substructure_query_id': 44, 'extended_name': 'PEGMA_2-site'}, 345: {'residue_name': 'PEG', 'residue_number': 14, 'insertion_code': ' ', 'chain_id': '1', 'match_info': '{"14": ["PEGMA_2-site", 45]}', 'substructure_query_id': 45, 'extended_name': 'PEGMA_2-site'}, 346: {'residue_name': 'PEG', 'residue_number': 14, 'insertion_code': ' ', 'chain_id': '1', 'match_info': '{"14": ["PEGMA_2-site", 46]}', 'substructure_query_id': 46, 'extended_name': 'PEGMA_2-site'}, 347: {'residue_name': 'PEG', 'residue_number': 14, 'insertion_code': ' ', 'chain_id': '1', 'match_info': '{"14": ["PEGMA_2-site", 47]}', 'substructure_query_id': 47, 'extended_name': 'PEGMA_2-site'}, 348: {'residue_name': 'PEG', 'residue_number': 14, 'insertion_code': ' ', 'chain_id': '1', 'match_info': '{"14": ["PEGMA_2-site", 48]}', 'substructure_query_id': 48, 'extended_name': 'PEGMA_2-site'}, 349: {'residue_name': 'PEG', 'residue_number': 14, 'insertion_code': ' ', 'chain_id': '1', 'match_info': '{"14": ["PEGMA_2-site", 49]}', 'substructure_query_id': 49, 'extended_name': 'PEGMA_2-site'}, 350: {'residue_name': 'PEG', 'residue_number': 14, 'insertion_code': ' ', 'chain_id': '1', 'match_info': '{"14": ["PEGMA_2-site", 50]}', 'substructure_query_id': 50, 'extended_name': 'PEGMA_2-site'}, 351: {'residue_name': 'PEG', 'residue_number': 14, 'insertion_code': ' ', 'chain_id': '1', 'match_info': '{"14": ["PEGMA_2-site", 51]}', 'substructure_query_id': 51, 'extended_name': 'PEGMA_2-site'}, 352: {'residue_name': 'PEG', 'residue_number': 14, 'insertion_code': ' ', 'chain_id': '1', 'match_info': '{"14": ["PEGMA_2-site", 52]}', 'substructure_query_id': 52, 'extended_name': 'PEGMA_2-site'}, 353: {'residue_name': 'PEG', 'residue_number': 14, 'insertion_code': ' ', 'chain_id': '1', 'match_info': '{"14": ["PEGMA_2-site", 53]}', 'substructure_query_id': 53, 'extended_name': 'PEGMA_2-site'}, 354: {'residue_name': 'PEG', 'residue_number': 14, 'insertion_code': ' ', 'chain_id': '1', 'match_info': '{"14": ["PEGMA_2-site", 54]}', 'substructure_query_id': 54, 'extended_name': 'PEGMA_2-site'}, 355: {'residue_name': 'PEG', 'residue_number': 14, 'insertion_code': ' ', 'chain_id': '1', 'match_info': '{"14": ["PEGMA_2-site", 55]}', 'substructure_query_id': 55, 'extended_name': 'PEGMA_2-site'}, 356: {'residue_name': 'PEG', 'residue_number': 14, 'insertion_code': ' ', 'chain_id': '1', 'match_info': '{"14": ["PEGMA_2-site", 56]}', 'substructure_query_id': 56, 'extended_name': 'PEGMA_2-site'}, 357: {'residue_name': 'PEG', 'residue_number': 14, 'insertion_code': ' ', 'chain_id': '1', 'match_info': '{"14": ["PEGMA_2-site", 57]}', 'substructure_query_id': 57, 'extended_name': 'PEGMA_2-site'}, 358: {'residue_name': 'PEG', 'residue_number': 14, 'insertion_code': ' ', 'chain_id': '1', 'match_info': '{"14": ["PEGMA_2-site", 58]}', 'substructure_query_id': 58, 'extended_name': 'PEGMA_2-site'}, 359: {'residue_name': 'PEG', 'residue_number': 14, 'insertion_code': ' ', 'chain_id': '1', 'match_info': '{"14": ["PEGMA_2-site", 59]}', 'substructure_query_id': 59, 'extended_name': 'PEGMA_2-site'}, 360: {'residue_name': 'PEG', 'residue_number': 14, 'insertion_code': ' ', 'chain_id': '1', 'match_info': '{"14": ["PEGMA_2-site", 60]}', 'substructure_query_id': 60, 'extended_name': 'PEGMA_2-site'}, 361: {'residue_name': 'PEG', 'residue_number': 14, 'insertion_code': ' ', 'chain_id': '1', 'match_info': '{"14": ["PEGMA_2-site", 61]}', 'substructure_query_id': 61, 'extended_name': 'PEGMA_2-site'}, 362: {'residue_name': 'PEG', 'residue_number': 14, 'insertion_code': ' ', 'chain_id': '1', 'match_info': '{"14": ["PEGMA_2-site", 62], "16": ["NHS_2-site", 22]}', 'substructure_query_id': 62, 'extended_name': 'PEGMA_2-site'}, 363: {'residue_name': 'PEG', 'residue_number': 14, 'insertion_code': ' ', 'chain_id': '1', 'match_info': '{"14": ["PEGMA_2-site", 63], "16": ["NHS_2-site", 23]}', 'substructure_query_id': 63, 'extended_name': 'PEGMA_2-site'}, 364: {'residue_name': 'SBM', 'residue_number': 8, 'insertion_code': ' ', 'chain_id': '1', 'match_info': '{"8": ["SBMA_1-site", 1]}', 'substructure_query_id': 1, 'extended_name': 'SBMA_1-site'}, 365: {'residue_name': 'SBM', 'residue_number': 8, 'insertion_code': ' ', 'chain_id': '1', 'match_info': '{"8": ["SBMA_1-site", 2]}', 'substructure_query_id': 2, 'extended_name': 'SBMA_1-site'}, 366: {'residue_name': 'SBM', 'residue_number': 8, 'insertion_code': ' ', 'chain_id': '1', 'match_info': '{"8": ["SBMA_1-site", 3]}', 'substructure_query_id': 3, 'extended_name': 'SBMA_1-site'}, 367: {'residue_name': 'SBM', 'residue_number': 8, 'insertion_code': ' ', 'chain_id': '1', 'match_info': '{"8": ["SBMA_1-site", 4]}', 'substructure_query_id': 4, 'extended_name': 'SBMA_1-site'}, 368: {'residue_name': 'SBM', 'residue_number': 8, 'insertion_code': ' ', 'chain_id': '1', 'match_info': '{"8": ["SBMA_1-site", 5]}', 'substructure_query_id': 5, 'extended_name': 'SBMA_1-site'}, 369: {'residue_name': 'SBM', 'residue_number': 8, 'insertion_code': ' ', 'chain_id': '1', 'match_info': '{"8": ["SBMA_1-site", 6]}', 'substructure_query_id': 6, 'extended_name': 'SBMA_1-site'}, 370: {'residue_name': 'SBM', 'residue_number': 8, 'insertion_code': ' ', 'chain_id': '1', 'match_info': '{"8": ["SBMA_1-site", 7]}', 'substructure_query_id': 7, 'extended_name': 'SBMA_1-site'}, 371: {'residue_name': 'SBM', 'residue_number': 8, 'insertion_code': ' ', 'chain_id': '1', 'match_info': '{"8": ["SBMA_1-site", 8]}', 'substructure_query_id': 8, 'extended_name': 'SBMA_1-site'}, 372: {'residue_name': 'SBM', 'residue_number': 8, 'insertion_code': ' ', 'chain_id': '1', 'match_info': '{"8": ["SBMA_1-site", 9]}', 'substructure_query_id': 9, 'extended_name': 'SBMA_1-site'}, 373: {'residue_name': 'SBM', 'residue_number': 8, 'insertion_code': ' ', 'chain_id': '1', 'match_info': '{"8": ["SBMA_1-site", 10]}', 'substructure_query_id': 10, 'extended_name': 'SBMA_1-site'}, 374: {'residue_name': 'SBM', 'residue_number': 8, 'insertion_code': ' ', 'chain_id': '1', 'match_info': '{"8": ["SBMA_1-site", 11]}', 'substructure_query_id': 11, 'extended_name': 'SBMA_1-site'}, 375: {'residue_name': 'SBM', 'residue_number': 8, 'insertion_code': ' ', 'chain_id': '1', 'match_info': '{"8": ["SBMA_1-site", 12]}', 'substructure_query_id': 12, 'extended_name': 'SBMA_1-site'}, 376: {'residue_name': 'SBM', 'residue_number': 8, 'insertion_code': ' ', 'chain_id': '1', 'match_info': '{"8": ["SBMA_1-site", 13]}', 'substructure_query_id': 13, 'extended_name': 'SBMA_1-site'}, 377: {'residue_name': 'SBM', 'residue_number': 8, 'insertion_code': ' ', 'chain_id': '1', 'match_info': '{"8": ["SBMA_1-site", 14]}', 'substructure_query_id': 14, 'extended_name': 'SBMA_1-site'}, 378: {'residue_name': 'SBM', 'residue_number': 8, 'insertion_code': ' ', 'chain_id': '1', 'match_info': '{"8": ["SBMA_1-site", 15]}', 'substructure_query_id': 15, 'extended_name': 'SBMA_1-site'}, 379: {'residue_name': 'SBM', 'residue_number': 8, 'insertion_code': ' ', 'chain_id': '1', 'match_info': '{"8": ["SBMA_1-site", 16]}', 'substructure_query_id': 16, 'extended_name': 'SBMA_1-site'}, 380: {'residue_name': 'SBM', 'residue_number': 8, 'insertion_code': ' ', 'chain_id': '1', 'match_info': '{"8": ["SBMA_1-site", 17]}', 'substructure_query_id': 17, 'extended_name': 'SBMA_1-site'}, 381: {'residue_name': 'SBM', 'residue_number': 8, 'insertion_code': ' ', 'chain_id': '1', 'match_info': '{"8": ["SBMA_1-site", 18]}', 'substructure_query_id': 18, 'extended_name': 'SBMA_1-site'}, 382: {'residue_name': 'SBM', 'residue_number': 8, 'insertion_code': ' ', 'chain_id': '1', 'match_info': '{"8": ["SBMA_1-site", 19]}', 'substructure_query_id': 19, 'extended_name': 'SBMA_1-site'}, 383: {'residue_name': 'SBM', 'residue_number': 8, 'insertion_code': ' ', 'chain_id': '1', 'match_info': '{"8": ["SBMA_1-site", 20]}', 'substructure_query_id': 20, 'extended_name': 'SBMA_1-site'}, 384: {'residue_name': 'SBM', 'residue_number': 8, 'insertion_code': ' ', 'chain_id': '1', 'match_info': '{"8": ["SBMA_1-site", 21]}', 'substructure_query_id': 21, 'extended_name': 'SBMA_1-site'}, 385: {'residue_name': 'SBM', 'residue_number': 8, 'insertion_code': ' ', 'chain_id': '1', 'match_info': '{"8": ["SBMA_1-site", 22]}', 'substructure_query_id': 22, 'extended_name': 'SBMA_1-site'}, 386: {'residue_name': 'SBM', 'residue_number': 8, 'insertion_code': ' ', 'chain_id': '1', 'match_info': '{"8": ["SBMA_1-site", 23]}', 'substructure_query_id': 23, 'extended_name': 'SBMA_1-site'}, 387: {'residue_name': 'SBM', 'residue_number': 8, 'insertion_code': ' ', 'chain_id': '1', 'match_info': '{"8": ["SBMA_1-site", 24]}', 'substructure_query_id': 24, 'extended_name': 'SBMA_1-site'}, 388: {'residue_name': 'SBM', 'residue_number': 8, 'insertion_code': ' ', 'chain_id': '1', 'match_info': '{"8": ["SBMA_1-site", 25]}', 'substructure_query_id': 25, 'extended_name': 'SBMA_1-site'}, 389: {'residue_name': 'SBM', 'residue_number': 8, 'insertion_code': ' ', 'chain_id': '1', 'match_info': '{"8": ["SBMA_1-site", 26]}', 'substructure_query_id': 26, 'extended_name': 'SBMA_1-site'}, 390: {'residue_name': 'SBM', 'residue_number': 8, 'insertion_code': ' ', 'chain_id': '1', 'match_info': '{"8": ["SBMA_1-site", 27]}', 'substructure_query_id': 27, 'extended_name': 'SBMA_1-site'}, 391: {'residue_name': 'SBM', 'residue_number': 8, 'insertion_code': ' ', 'chain_id': '1', 'match_info': '{"8": ["SBMA_1-site", 28]}', 'substructure_query_id': 28, 'extended_name': 'SBMA_1-site'}, 392: {'residue_name': 'SBM', 'residue_number': 8, 'insertion_code': ' ', 'chain_id': '1', 'match_info': '{"8": ["SBMA_1-site", 29]}', 'substructure_query_id': 29, 'extended_name': 'SBMA_1-site'}, 393: {'residue_name': 'SBM', 'residue_number': 8, 'insertion_code': ' ', 'chain_id': '1', 'match_info': '{"8": ["SBMA_1-site", 30]}', 'substructure_query_id': 30, 'extended_name': 'SBMA_1-site'}, 394: {'residue_name': 'SBM', 'residue_number': 8, 'insertion_code': ' ', 'chain_id': '1', 'match_info': '{"8": ["SBMA_1-site", 31]}', 'substructure_query_id': 31, 'extended_name': 'SBMA_1-site'}, 395: {'residue_name': 'SBM', 'residue_number': 8, 'insertion_code': ' ', 'chain_id': '1', 'match_info': '{"8": ["SBMA_1-site", 32]}', 'substructure_query_id': 32, 'extended_name': 'SBMA_1-site'}, 396: {'residue_name': 'SBM', 'residue_number': 8, 'insertion_code': ' ', 'chain_id': '1', 'match_info': '{"8": ["SBMA_1-site", 33]}', 'substructure_query_id': 33, 'extended_name': 'SBMA_1-site'}, 397: {'residue_name': 'SBM', 'residue_number': 8, 'insertion_code': ' ', 'chain_id': '1', 'match_info': '{"8": ["SBMA_1-site", 34]}', 'substructure_query_id': 34, 'extended_name': 'SBMA_1-site'}, 398: {'residue_name': 'SBM', 'residue_number': 8, 'insertion_code': ' ', 'chain_id': '1', 'match_info': '{"8": ["SBMA_1-site", 35]}', 'substructure_query_id': 35, 'extended_name': 'SBMA_1-site'}, 399: {'residue_name': 'SBM', 'residue_number': 8, 'insertion_code': ' ', 'chain_id': '1', 'match_info': '{"8": ["SBMA_1-site", 36]}', 'substructure_query_id': 36, 'extended_name': 'SBMA_1-site'}, 400: {'residue_name': 'SBM', 'residue_number': 8, 'insertion_code': ' ', 'chain_id': '1', 'match_info': '{"8": ["SBMA_1-site", 37]}', 'substructure_query_id': 37, 'extended_name': 'SBMA_1-site'}, 401: {'residue_name': 'SBM', 'residue_number': 8, 'insertion_code': ' ', 'chain_id': '1', 'match_info': '{"8": ["SBMA_1-site", 38]}', 'substructure_query_id': 38, 'extended_name': 'SBMA_1-site'}, 402: {'residue_name': 'SBM', 'residue_number': 9, 'insertion_code': ' ', 'chain_id': '1', 'match_info': '{"9": ["SBMA_1-site", 1]}', 'substructure_query_id': 1, 'extended_name': 'SBMA_1-site'}, 403: {'residue_name': 'SBM', 'residue_number': 9, 'insertion_code': ' ', 'chain_id': '1', 'match_info': '{"9": ["SBMA_1-site", 2]}', 'substructure_query_id': 2, 'extended_name': 'SBMA_1-site'}, 404: {'residue_name': 'SBM', 'residue_number': 9, 'insertion_code': ' ', 'chain_id': '1', 'match_info': '{"9": ["SBMA_1-site", 3]}', 'substructure_query_id': 3, 'extended_name': 'SBMA_1-site'}, 405: {'residue_name': 'SBM', 'residue_number': 9, 'insertion_code': ' ', 'chain_id': '1', 'match_info': '{"9": ["SBMA_1-site", 4]}', 'substructure_query_id': 4, 'extended_name': 'SBMA_1-site'}, 406: {'residue_name': 'SBM', 'residue_number': 9, 'insertion_code': ' ', 'chain_id': '1', 'match_info': '{"9": ["SBMA_1-site", 5]}', 'substructure_query_id': 5, 'extended_name': 'SBMA_1-site'}, 407: {'residue_name': 'SBM', 'residue_number': 9, 'insertion_code': ' ', 'chain_id': '1', 'match_info': '{"9": ["SBMA_1-site", 6]}', 'substructure_query_id': 6, 'extended_name': 'SBMA_1-site'}, 408: {'residue_name': 'SBM', 'residue_number': 9, 'insertion_code': ' ', 'chain_id': '1', 'match_info': '{"9": ["SBMA_1-site", 7]}', 'substructure_query_id': 7, 'extended_name': 'SBMA_1-site'}, 409: {'residue_name': 'SBM', 'residue_number': 9, 'insertion_code': ' ', 'chain_id': '1', 'match_info': '{"9": ["SBMA_1-site", 8]}', 'substructure_query_id': 8, 'extended_name': 'SBMA_1-site'}, 410: {'residue_name': 'SBM', 'residue_number': 9, 'insertion_code': ' ', 'chain_id': '1', 'match_info': '{"9": ["SBMA_1-site", 9]}', 'substructure_query_id': 9, 'extended_name': 'SBMA_1-site'}, 411: {'residue_name': 'SBM', 'residue_number': 9, 'insertion_code': ' ', 'chain_id': '1', 'match_info': '{"9": ["SBMA_1-site", 10]}', 'substructure_query_id': 10, 'extended_name': 'SBMA_1-site'}, 412: {'residue_name': 'SBM', 'residue_number': 9, 'insertion_code': ' ', 'chain_id': '1', 'match_info': '{"9": ["SBMA_1-site", 11]}', 'substructure_query_id': 11, 'extended_name': 'SBMA_1-site'}, 413: {'residue_name': 'SBM', 'residue_number': 9, 'insertion_code': ' ', 'chain_id': '1', 'match_info': '{"9": ["SBMA_1-site", 12]}', 'substructure_query_id': 12, 'extended_name': 'SBMA_1-site'}, 414: {'residue_name': 'SBM', 'residue_number': 9, 'insertion_code': ' ', 'chain_id': '1', 'match_info': '{"9": ["SBMA_1-site", 13]}', 'substructure_query_id': 13, 'extended_name': 'SBMA_1-site'}, 415: {'residue_name': 'SBM', 'residue_number': 9, 'insertion_code': ' ', 'chain_id': '1', 'match_info': '{"9": ["SBMA_1-site", 14]}', 'substructure_query_id': 14, 'extended_name': 'SBMA_1-site'}, 416: {'residue_name': 'SBM', 'residue_number': 9, 'insertion_code': ' ', 'chain_id': '1', 'match_info': '{"9": ["SBMA_1-site", 15]}', 'substructure_query_id': 15, 'extended_name': 'SBMA_1-site'}, 417: {'residue_name': 'SBM', 'residue_number': 9, 'insertion_code': ' ', 'chain_id': '1', 'match_info': '{"9": ["SBMA_1-site", 16]}', 'substructure_query_id': 16, 'extended_name': 'SBMA_1-site'}, 418: {'residue_name': 'SBM', 'residue_number': 9, 'insertion_code': ' ', 'chain_id': '1', 'match_info': '{"9": ["SBMA_1-site", 17]}', 'substructure_query_id': 17, 'extended_name': 'SBMA_1-site'}, 419: {'residue_name': 'SBM', 'residue_number': 9, 'insertion_code': ' ', 'chain_id': '1', 'match_info': '{"9": ["SBMA_1-site", 18]}', 'substructure_query_id': 18, 'extended_name': 'SBMA_1-site'}, 420: {'residue_name': 'SBM', 'residue_number': 9, 'insertion_code': ' ', 'chain_id': '1', 'match_info': '{"9": ["SBMA_1-site", 19]}', 'substructure_query_id': 19, 'extended_name': 'SBMA_1-site'}, 421: {'residue_name': 'SBM', 'residue_number': 9, 'insertion_code': ' ', 'chain_id': '1', 'match_info': '{"9": ["SBMA_1-site", 20]}', 'substructure_query_id': 20, 'extended_name': 'SBMA_1-site'}, 422: {'residue_name': 'SBM', 'residue_number': 9, 'insertion_code': ' ', 'chain_id': '1', 'match_info': '{"9": ["SBMA_1-site", 21]}', 'substructure_query_id': 21, 'extended_name': 'SBMA_1-site'}, 423: {'residue_name': 'SBM', 'residue_number': 9, 'insertion_code': ' ', 'chain_id': '1', 'match_info': '{"9": ["SBMA_1-site", 22]}', 'substructure_query_id': 22, 'extended_name': 'SBMA_1-site'}, 424: {'residue_name': 'SBM', 'residue_number': 9, 'insertion_code': ' ', 'chain_id': '1', 'match_info': '{"9": ["SBMA_1-site", 23]}', 'substructure_query_id': 23, 'extended_name': 'SBMA_1-site'}, 425: {'residue_name': 'SBM', 'residue_number': 9, 'insertion_code': ' ', 'chain_id': '1', 'match_info': '{"9": ["SBMA_1-site", 24]}', 'substructure_query_id': 24, 'extended_name': 'SBMA_1-site'}, 426: {'residue_name': 'SBM', 'residue_number': 9, 'insertion_code': ' ', 'chain_id': '1', 'match_info': '{"9": ["SBMA_1-site", 25]}', 'substructure_query_id': 25, 'extended_name': 'SBMA_1-site'}, 427: {'residue_name': 'SBM', 'residue_number': 9, 'insertion_code': ' ', 'chain_id': '1', 'match_info': '{"9": ["SBMA_1-site", 26]}', 'substructure_query_id': 26, 'extended_name': 'SBMA_1-site'}, 428: {'residue_name': 'SBM', 'residue_number': 9, 'insertion_code': ' ', 'chain_id': '1', 'match_info': '{"9": ["SBMA_1-site", 27]}', 'substructure_query_id': 27, 'extended_name': 'SBMA_1-site'}, 429: {'residue_name': 'SBM', 'residue_number': 9, 'insertion_code': ' ', 'chain_id': '1', 'match_info': '{"9": ["SBMA_1-site", 28]}', 'substructure_query_id': 28, 'extended_name': 'SBMA_1-site'}, 430: {'residue_name': 'SBM', 'residue_number': 9, 'insertion_code': ' ', 'chain_id': '1', 'match_info': '{"9": ["SBMA_1-site", 29]}', 'substructure_query_id': 29, 'extended_name': 'SBMA_1-site'}, 431: {'residue_name': 'SBM', 'residue_number': 9, 'insertion_code': ' ', 'chain_id': '1', 'match_info': '{"9": ["SBMA_1-site", 30]}', 'substructure_query_id': 30, 'extended_name': 'SBMA_1-site'}, 432: {'residue_name': 'SBM', 'residue_number': 9, 'insertion_code': ' ', 'chain_id': '1', 'match_info': '{"9": ["SBMA_1-site", 31]}', 'substructure_query_id': 31, 'extended_name': 'SBMA_1-site'}, 433: {'residue_name': 'SBM', 'residue_number': 9, 'insertion_code': ' ', 'chain_id': '1', 'match_info': '{"9": ["SBMA_1-site", 32]}', 'substructure_query_id': 32, 'extended_name': 'SBMA_1-site'}, 434: {'residue_name': 'SBM', 'residue_number': 9, 'insertion_code': ' ', 'chain_id': '1', 'match_info': '{"9": ["SBMA_1-site", 33]}', 'substructure_query_id': 33, 'extended_name': 'SBMA_1-site'}, 435: {'residue_name': 'SBM', 'residue_number': 9, 'insertion_code': ' ', 'chain_id': '1', 'match_info': '{"9": ["SBMA_1-site", 34]}', 'substructure_query_id': 34, 'extended_name': 'SBMA_1-site'}, 436: {'residue_name': 'SBM', 'residue_number': 9, 'insertion_code': ' ', 'chain_id': '1', 'match_info': '{"9": ["SBMA_1-site", 35]}', 'substructure_query_id': 35, 'extended_name': 'SBMA_1-site'}, 437: {'residue_name': 'SBM', 'residue_number': 9, 'insertion_code': ' ', 'chain_id': '1', 'match_info': '{"9": ["SBMA_1-site", 36]}', 'substructure_query_id': 36, 'extended_name': 'SBMA_1-site'}, 438: {'residue_name': 'SBM', 'residue_number': 9, 'insertion_code': ' ', 'chain_id': '1', 'match_info': '{"9": ["SBMA_1-site", 37]}', 'substructure_query_id': 37, 'extended_name': 'SBMA_1-site'}, 439: {'residue_name': 'SBM', 'residue_number': 9, 'insertion_code': ' ', 'chain_id': '1', 'match_info': '{"9": ["SBMA_1-site", 38]}', 'substructure_query_id': 38, 'extended_name': 'SBMA_1-site'}}

>  <atom.dprop.PartialCharge>  (1) 
-0.052673136459832841 -0.091278785484080971 -0.082142302410846413 0.049212171120399779 0.049212171120399779 0.049212171120399779 0.66030187009071761 -0.52431767584586686
-0.45410262944007462 0.11816208658909255 0.099655179662460625 -0.59691887499595231 0.082099160535091698 0.096864959580654442 0.096864959580654442 0.096864959580654442 0.082099160535091698
0.096864959580654442 0.096864959580654442 0.096864959580654442 0.11484908161854201 -0.055270531790500337 -0.27027543784881181 1.4286375105211682 -0.72752975823188371 -0.72752975823188371
-0.72752975823188371 0.073781861347908317 0.073781861347908317 0.081061600131744682 0.081061600131744682 0.089168912155384361 0.089168912155384361 0.1079208984801715 0.1079208984801715
0.062382793409580535 0.062382793409580535 0.071471413953060448 0.071471413953060448 -0.061962509172206574 -0.098268637078052223 -0.086637349443679512 0.050223095698112792
0.050223095698112792 0.050223095698112792 0.66245085595344955 -0.51499717833304948 -0.45307745935226029 0.11436595617031509 0.099754995090717613 -0.59691887499595231 0.082099160535091698
0.096864959580654442 0.096864959580654442 0.096864959580654442 0.082099160535091698 0.096864959580654442 0.096864959580654442 0.096864959580654442 0.11484908161854201 -0.055270531790500337
-0.27027543784881181 1.4286375105211682 -0.72752975823188371 -0.72752975823188371 -0.72752975823188371 0.073781861347908317 0.073781861347908317 0.081061600131744682 0.081061600131744682
0.089168912155384361 0.089168912155384361 0.1079208984801715 0.1079208984801715 0.063284924609417259 0.063284924609417259 0.063164657337421715 0.063164657337421715 -0.061915231513028794
-0.098843970911746681 -0.088620418327098549 0.050434014184231109 0.050434014184231109 0.050434014184231109 0.66154444812035018 -0.51399969460273331 -0.45296888949180192 0.11436595617031509
0.099754995090717613 -0.59691887499595231 0.082099160535091698 0.096864959580654442 0.096864959580654442 0.096864959580654442 0.082099160535091698 0.096864959580654442 0.096864959580654442
0.096864959580654442 0.11484908161854201 -0.055270531790500337 -0.27027543784881181 1.4286375105211682 -0.72752975823188371 -0.72752975823188371 -0.72752975823188371 0.073781861347908317
0.073781861347908317 0.081061600131744682 0.081061600131744682 0.089168912155384361 0.089168912155384361 0.1079208984801715 0.1079208984801715 0.063284924609417259 0.063284924609417259
0.063148757798427879 0.063148757798427879 -0.062600338475948036 -0.099083954112773598 -0.088620418327098549 0.050434014184231109 0.050434014184231109 0.050434014184231109
0.66154444812035018 -0.51399969460273331 -0.45296888949180192 0.11436595617031509 0.099754995090717613 -0.59691887499595231 0.082099160535091698 0.096864959580654442 0.096864959580654442
0.096864959580654442 0.082099160535091698 0.096864959580654442 0.096864959580654442 0.096864959580654442 0.11484908161854201 -0.055270531790500337 -0.27027543784881181 1.4286375105211682
-0.72752975823188371 -0.72752975823188371 -0.72752975823188371 0.073781861347908317 0.073781861347908317 0.081061600131744682 0.081061600131744682 0.089168912155384361 0.089168912155384361
0.1079208984801715 0.1079208984801715 0.063284924609417259 0.063284924609417259 0.063081844134086906 0.063081844134086906 -0.055871294455772096 -0.10327232779765672 -0.081327782588248909
0.050434014184231109 0.050434014184231109 0.050434014184231109 0.67407698033546859 -0.53974526526237077 -0.44863387347961015 0.13037738798355514 0.1249535739252513 -0.41546698810363358
0.13213259576057845 -0.10340156556869096 0.13179506955837661 -0.41326140763068742 0.13165277837013656 -0.10345036687160081 0.13165277837013656 -0.41326140763068742 0.13165277837013656
-0.10345036687160081 0.13165277837013656 -0.41358148457313126 0.13287315366959029 -0.09674642385745591 0.12775779364799911 -0.41480513812804765 0.12242243288254195 0.034169553203338927
0.034169553203338927 0.034169553203338927 0.026814511401409453 0.026814511401409453 0.072701027972454368 0.072701027972454368 0.033033261431211776 0.033033261431211776 0.033133155090565032
0.033133155090565032 0.070778569562191307 0.070778569562191307 0.033133155090565032 0.033133155090565032 0.033133155090565032 0.033133155090565032 0.070778569562191307 0.070778569562191307
0.033133155090565032 0.033133155090565032 0.033133155090565032 0.033133155090565032 0.071047922951931297 0.071047922951931297 0.034192582947964019 0.034192582947964019 0.045704445225948638
0.045704445225948638 0.06839538214897567 0.06839538214897567 0.063081844134086906 0.063081844134086906 -0.048023437725549394 -0.1010290697386319 -0.080943965928798378 0.050434014184231109
0.050434014184231109 0.050434014184231109 0.67450839875435287 -0.53974526526237077 -0.44863387347961015 0.13037738798355514 0.1249535739252513 -0.41546698810363358 0.13213259576057845
-0.10340156556869096 0.13179506955837661 -0.41326140763068742 0.13165277837013656 -0.10345036687160081 0.13165277837013656 -0.41326140763068742 0.13165277837013656 -0.10345036687160081
0.13165277837013656 -0.41358148457313126 0.13287315366959029 -0.09674642385745591 0.12775779364799911 -0.41480513812804765 0.12242243288254195 0.034169553203338927 0.034169553203338927
0.034169553203338927 0.026814511401409453 0.026814511401409453 0.072701027972454368 0.072701027972454368 0.033033261431211776 0.033033261431211776 0.033133155090565032 0.033133155090565032
0.070778569562191307 0.070778569562191307 0.033133155090565032 0.033133155090565032 0.033133155090565032 0.033133155090565032 0.070778569562191307 0.070778569562191307 0.033133155090565032
0.033133155090565032 0.033133155090565032 0.033133155090565032 0.071047922951931297 0.071047922951931297 0.034192582947964019 0.034192582947964019 0.045704445225948638 0.045704445225948638
0.06839538214897567 0.06839538214897567 0.063081844134086906 0.063081844134086906 -0.052212426083331757 -0.098226586001163185 -0.084902586059814156 0.052008388919586486
0.052008388919586486 0.052008388919586486 0.6315148532221263 -0.48444812895560807 -0.20222693087363786 -0.36232739092612809 0.70527482627129012 -0.5489900648763234 -0.16642893256450242
0.09552647767757827 0.09552647767757827 -0.16642893256450242 0.09552647767757827 0.09552647767757827 0.70527482627129012 -0.5489900648763234 0.065649873001331627 0.065649873001331627
-0.05604775400662964 -0.081119889037852944 -0.087834285216575325 0.051408307982439345 0.051408307982439345 0.051408307982439345 0.65998787282204086 -0.53369545342231339
-0.44157441856170243 0.12875165639614516 0.12550368009304458 -0.41531746985221452 0.13213259576057845 -0.10340156556869096 0.13179506955837661 -0.41326140763068742 0.13165277837013656
-0.10345036687160081 0.13165277837013656 -0.41326140763068742 0.13165277837013656 -0.10345036687160081 0.13165277837013656 -0.41358148457313126 0.13287315366959029 -0.09674642385745591
0.12775779364799911 -0.41480513812804765 0.12242243288254195 0.034169553203338927 0.034169553203338927 0.034169553203338927 0.026814511401409453 0.026814511401409453 0.072701027972454368
0.072701027972454368 0.033033261431211776 0.033033261431211776 0.033133155090565032 0.033133155090565032 0.070778569562191307 0.070778569562191307 0.033133155090565032 0.033133155090565032
0.033133155090565032 0.033133155090565032 0.070778569562191307 0.070778569562191307 0.033133155090565032 0.033133155090565032 0.033133155090565032 0.033133155090565032 0.071047922951931297
0.071047922951931297 0.034192582947964019 0.034192582947964019 0.045610225183719939 0.045610225183719939 0.068775838596576988 0.068775838596576988 0.071398018283600151 0.071398018283600151
-0.088123211281543434 -0.15286702813411301 -0.055593674646859818 0.054117823375219649 0.054117823375219649 0.054117823375219649 0.6497934520075267 -0.51304840447211808 -0.46338325144553727
0.11282955704426223 0.094571514410728752 -0.59912698866630143 0.081754004938358604 0.096864959580654442 0.096864959580654442 0.096864959580654442 0.081754004938358604 0.096864959580654442
0.096864959580654442 0.096864959580654442 0.1146536528894847 -0.055270531790500337 -0.27027543784881181 1.4286375105211682 -0.72752975823188371 -0.72752975823188371 -0.72752975823188371
0.073781861347908317 0.073781861347908317 0.081061600131744682 0.081061600131744682 0.089168912155384361 0.089168912155384361 0.1072710811922496 0.1072710811922496 0.063910683972591698
0.063910683972591698 0.14455021022056991 -0.079740995185619057 -0.12602821888232774 -0.052353614585643464 0.054039067013019866 0.054039067013019866 0.054039067013019866 0.64432526229118758
-0.51349192263389176 -0.45915978552604264 0.1124435648152774 0.094571514410728752 -0.59912698866630143 0.081754004938358604 0.096864959580654442 0.096864959580654442 0.096864959580654442
0.081754004938358604 0.096864959580654442 0.096864959580654442 0.096864959580654442 0.1146536528894847 -0.055270531790500337 -0.27027543784881181 1.4286375105211682 -0.72752975823188371
-0.72752975823188371 -0.72752975823188371 0.073781861347908317 0.073781861347908317 0.081061600131744682 0.081061600131744682 0.089168912155384361 0.089168912155384361 0.1072710811922496
0.1072710811922496 0.063910683972591698 0.063910683972591698 0.1475155263969844

$$$$
