
     RDKit          2D

 93 94  0  0  0  0  0  0  0  0999 V2000
   -0.7500  -11.6913    0.0000 C   0  0  0  0  0  0  0  0  0  0  0  0
    0.7500  -11.6913    0.0000 C   0  0  0  0  0  0  0  0  0  0  0  0
   -0.0000  -12.9904    0.0000 C   0  0  0  0  0  0  0  0  0  0  0  0
   -0.7500  -14.2894    0.0000 H   0  0  0  0  0  0  0  0  0  0  0  0
    0.5016  -13.6099    0.0000 H   0  0  0  0  0  0  0  0  0  0  0  0
   -1.4816  -12.7558    0.0000 H   0  0  0  0  0  0  0  0  0  0  0  0
    1.5000  -12.9904    0.0000 C   0  0  0  0  0  0  0  0  0  0  0  0
    1.1885  -13.7242    0.0000 O   0  0  0  0  0  0  0  0  0  0  0  0
    3.0000  -12.9904    0.0000 O   0  0  0  0  0  0  0  0  0  0  0  0
    3.7500  -14.2894    0.0000 N   0  0  0  0  0  0  0  0  0  0  0  0
    5.2418  -14.4462    0.0000 C   0  0  0  0  0  0  0  0  0  0  0  0
    6.2455  -13.3315    0.0000 O   0  0  0  0  0  0  0  0  0  0  0  0
    5.5537  -15.9134    0.0000 C   0  0  0  0  0  0  0  0  0  0  0  0
    6.9802  -15.4499    0.0000 H   0  0  0  0  0  0  0  0  0  0  0  0
    6.1638  -17.2838    0.0000 H   0  0  0  0  0  0  0  0  0  0  0  0
    4.2546  -16.6634    0.0000 C   0  0  0  0  0  0  0  0  0  0  0  0
    5.1363  -17.8770    0.0000 H   0  0  0  0  0  0  0  0  0  0  0  0
    3.1399  -17.6671    0.0000 H   0  0  0  0  0  0  0  0  0  0  0  0
    3.1399  -15.6597    0.0000 C   0  0  0  0  0  0  0  0  0  0  0  0
    1.6727  -15.9716    0.0000 O   0  0  0  0  0  0  0  0  0  0  0  0
   -2.2500  -11.6913    0.0000 H   0  0  0  0  0  0  0  0  0  0  0  0
   -1.6528  -12.8893    0.0000 H   0  0  0  0  0  0  0  0  0  0  0  0
   -0.0000  -10.3923    0.0000 C   0  0  0  0  0  0  0  0  0  0  0  0
    0.7500   -9.0933    0.0000 C   0  0  0  0  0  0  0  0  0  0  0  0
   -0.0000   -7.7942    0.0000 C   0  0  0  0  0  0  0  0  0  0  0  0
   -1.0420   -6.7153    0.0000 H   0  0  0  0  0  0  0  0  0  0  0  0
    1.3808   -7.2082    0.0000 H   0  0  0  0  0  0  0  0  0  0  0  0
   -1.4419   -8.2076    0.0000 H   0  0  0  0  0  0  0  0  0  0  0  0
    2.2500   -9.0933    0.0000 C   0  0  0  0  0  0  0  0  0  0  0  0
    3.0000   -7.7942    0.0000 O   0  0  0  0  0  0  0  0  0  0  0  0
    3.0000  -10.3923    0.0000 O   0  0  0  0  0  0  0  0  0  0  0  0
    4.5000  -10.3923    0.0000 C   0  0  0  0  0  0  0  0  0  0  0  0
    6.0000  -10.3923    0.0000 C   0  0  0  0  0  0  0  0  0  0  0  0
    7.5000  -10.3923    0.0000 N   0  0  0  0  0  0  0  0  0  0  0  0
    9.0000  -10.3923    0.0000 C   0  0  0  0  0  0  0  0  0  0  0  0
   10.5000  -10.3923    0.0000 H   0  0  0  0  0  0  0  0  0  0  0  0
    9.1828   -8.9035    0.0000 H   0  0  0  0  0  0  0  0  0  0  0  0
    9.1828  -11.8811    0.0000 H   0  0  0  0  0  0  0  0  0  0  0  0
    7.5000  -11.8923    0.0000 C   0  0  0  0  0  0  0  0  0  0  0  0
    7.5000  -13.3923    0.0000 H   0  0  0  0  0  0  0  0  0  0  0  0
    8.9888  -12.0751    0.0000 H   0  0  0  0  0  0  0  0  0  0  0  0
    6.0112  -12.0751    0.0000 H   0  0  0  0  0  0  0  0  0  0  0  0
    7.5000   -8.8923    0.0000 C   0  0  0  0  0  0  0  0  0  0  0  0
    7.5000   -7.3923    0.0000 C   0  0  0  0  0  0  0  0  0  0  0  0
    7.5000   -5.8923    0.0000 C   0  0  0  0  0  0  0  0  0  0  0  0
    7.5000   -4.3923    0.0000 S   0  0  0  0  0  0  0  0  0  0  0  0
    7.5000   -2.8923    0.0000 O   0  0  0  0  0  0  0  0  0  0  0  0
    9.0000   -4.3923    0.0000 O   0  0  0  0  0  0  0  0  0  0  0  0
    6.0000   -4.3923    0.0000 O   0  0  0  0  0  0  0  0  0  0  0  0
    6.0000   -5.8923    0.0000 H   0  0  0  0  0  0  0  0  0  0  0  0
    9.0000   -5.8923    0.0000 H   0  0  0  0  0  0  0  0  0  0  0  0
    9.0000   -7.3923    0.0000 H   0  0  0  0  0  0  0  0  0  0  0  0
    6.0000   -7.3923    0.0000 H   0  0  0  0  0  0  0  0  0  0  0  0
    6.0112   -8.7095    0.0000 H   0  0  0  0  0  0  0  0  0  0  0  0
    8.9888   -8.7095    0.0000 H   0  0  0  0  0  0  0  0  0  0  0  0
    5.8172   -8.9035    0.0000 H   0  0  0  0  0  0  0  0  0  0  0  0
    5.8172  -11.8811    0.0000 H   0  0  0  0  0  0  0  0  0  0  0  0
    4.5000   -8.8923    0.0000 H   0  0  0  0  0  0  0  0  0  0  0  0
    4.5000  -11.8923    0.0000 H   0  0  0  0  0  0  0  0  0  0  0  0
   -1.3808   -9.8062    0.0000 H   0  0  0  0  0  0  0  0  0  0  0  0
   -0.0000  -10.3923    0.0000 C   0  0  0  0  0  0  0  0  0  0  0  0
   -0.7500   -9.0933    0.0000 C   0  0  0  0  0  0  0  0  0  0  0  0
   -2.2500   -9.0933    0.0000 C   0  0  0  0  0  0  0  0  0  0  0  0
   -3.7500   -9.0933    0.0000 H   0  0  0  0  0  0  0  0  0  0  0  0
   -2.4328  -10.5821    0.0000 H   0  0  0  0  0  0  0  0  0  0  0  0
   -2.2500   -7.5933    0.0000 H   0  0  0  0  0  0  0  0  0  0  0  0
   -0.0000   -7.7942    0.0000 C   0  0  0  0  0  0  0  0  0  0  0  0
    1.4888   -7.6114    0.0000 O   0  0  0  0  0  0  0  0  0  0  0  0
   -0.7500   -6.4952    0.0000 O   0  0  0  0  0  0  0  0  0  0  0  0
   -0.0000   -5.1962    0.0000 C   0  0  0  0  0  0  0  0  0  0  0  0
    0.7500   -3.8971    0.0000 C   0  0  0  0  0  0  0  0  0  0  0  0
    1.5000   -2.5981    0.0000 O   0  0  0  0  0  0  0  0  0  0  0  0
    0.7500   -1.2990    0.0000 C   0  0  0  0  0  0  0  0  0  0  0  0
    1.5000    0.0000    0.0000 C   0  0  0  0  0  0  0  0  0  0  0  0
    3.0000    0.0000    0.0000 H   0  0  0  0  0  0  0  0  0  0  0  0
    0.7500    1.2990    0.0000 C   0  0  0  0  0  0  0  0  0  0  0  0
    1.5000    2.5981    0.0000 H   0  0  0  0  0  0  0  0  0  0  0  0
   -0.7500    1.2990    0.0000 C   0  0  0  0  0  0  0  0  0  0  0  0
   -1.5000    2.5981    0.0000 H   0  0  0  0  0  0  0  0  0  0  0  0
   -1.5000    0.0000    0.0000 C   0  0  0  0  0  0  0  0  0  0  0  0
   -3.0000    0.0000    0.0000 H   0  0  0  0  0  0  0  0  0  0  0  0
   -0.7500   -1.2990    0.0000 C   0  0  0  0  0  0  0  0  0  0  0  0
   -1.5000   -2.5981    0.0000 H   0  0  0  0  0  0  0  0  0  0  0  0
   -0.5490   -3.1471    0.0000 H   0  0  0  0  0  0  0  0  0  0  0  0
    2.0490   -4.6471    0.0000 H   0  0  0  0  0  0  0  0  0  0  0  0
   -1.2990   -4.4462    0.0000 H   0  0  0  0  0  0  0  0  0  0  0  0
    1.2990   -5.9462    0.0000 H   0  0  0  0  0  0  0  0  0  0  0  0
   -1.4816  -10.6268    0.0000 H   0  0  0  0  0  0  0  0  0  0  0  0
   -1.9158  -10.7475    0.0000 H   0  0  0  0  0  0  0  0  0  0  0  0
    2.2500  -11.6913    0.0000 H   0  0  0  0  0  0  0  0  0  0  0  0
    1.4419  -10.8057    0.0000 H   0  0  0  0  0  0  0  0  0  0  0  0
    5.2500   -3.0933    0.0000 H   0  0  0  0  0  0  0  0  0  0  0  0
    1.4419   -9.9789    0.0000 H   0  0  0  0  0  0  0  0  0  0  0  0
  1  2  1  0
  1 21  1  0
  1 22  1  0
  1 23  0  0
  2  3  1  0
  2  7  1  0
  2 61  0  0
  3  4  1  0
  3  5  1  0
  3  6  1  0
  7  8  2  0
  7  9  1  0
  9 10  1  0
 10 11  1  0
 10 19  1  0
 11 12  2  0
 11 13  1  0
 13 14  1  0
 13 15  1  0
 13 16  1  0
 16 17  1  0
 16 18  1  0
 16 19  1  0
 19 20  2  0
 23 24  2  0
 23 60  1  0
 24 25  1  0
 24 29  1  0
 25 26  1  0
 25 27  1  0
 25 28  1  0
 29 30  2  0
 29 31  1  0
 31 32  1  0
 32 33  1  0
 32 58  1  0
 32 59  1  0
 33 34  1  0
 33 56  1  0
 33 57  1  0
 34 35  1  0
 34 39  1  0
 34 43  1  0
 35 36  1  0
 35 37  1  0
 35 38  1  0
 39 40  1  0
 39 41  1  0
 39 42  1  0
 43 44  1  0
 43 54  1  0
 43 55  1  0
 44 45  1  0
 44 52  1  0
 44 53  1  0
 45 46  1  0
 45 50  1  0
 45 51  1  0
 46 47  2  0
 46 48  2  0
 46 49  1  0
 61 62  2  0
 61 88  1  0
 62 63  1  0
 62 67  1  0
 63 64  1  0
 63 65  1  0
 63 66  1  0
 67 68  2  0
 67 69  1  0
 69 70  1  0
 70 71  1  0
 70 86  1  0
 70 87  1  0
 71 72  1  0
 71 84  1  0
 71 85  1  0
 72 73  1  0
 73 74  2  0
 73 82  1  0
 74 75  1  0
 74 76  1  0
 76 77  1  0
 76 78  2  0
 78 79  1  0
 78 80  1  0
 80 81  1  0
 80 82  2  0
 82 83  1  0
  1 89  1  0
  2 90  1  0
 23 91  1  0
 49 92  1  0
 61 93  1  0
M  CHG  1  34   1
M  END
