
     RDKit          2D

 88 89  0  0  0  0  0  0  0  0999 V2000
   -2.0490  -10.9413    0.0000 C   0  0  0  0  0  0  0  0  0  0  0  0
   -0.7500  -11.6913    0.0000 C   0  0  0  0  0  0  0  0  0  0  0  0
    0.5490  -12.4413    0.0000 C   0  0  0  0  0  0  0  0  0  0  0  0
    1.8481  -13.1913    0.0000 H   0  0  0  0  0  0  0  0  0  0  0  0
    0.1357  -13.8833    0.0000 H   0  0  0  0  0  0  0  0  0  0  0  0
    1.4518  -11.2434    0.0000 H   0  0  0  0  0  0  0  0  0  0  0  0
   -1.5000  -12.9904    0.0000 C   0  0  0  0  0  0  0  0  0  0  0  0
   -2.4842  -12.9904    0.0000 O   0  0  0  0  0  0  0  0  0  0  0  0
   -0.7500  -14.2894    0.0000 O   0  0  0  0  0  0  0  0  0  0  0  0
   -1.5000  -15.5885    0.0000 N   0  0  0  0  0  0  0  0  0  0  0  0
   -0.8899  -16.9588    0.0000 C   0  0  0  0  0  0  0  0  0  0  0  0
    0.5773  -17.2706    0.0000 O   0  0  0  0  0  0  0  0  0  0  0  0
   -2.0046  -17.9625    0.0000 C   0  0  0  0  0  0  0  0  0  0  0  0
   -0.8899  -18.9662    0.0000 H   0  0  0  0  0  0  0  0  0  0  0  0
   -2.8863  -19.1760    0.0000 H   0  0  0  0  0  0  0  0  0  0  0  0
   -3.3037  -17.2125    0.0000 C   0  0  0  0  0  0  0  0  0  0  0  0
   -3.9138  -18.5828    0.0000 H   0  0  0  0  0  0  0  0  0  0  0  0
   -4.7302  -16.7489    0.0000 H   0  0  0  0  0  0  0  0  0  0  0  0
   -2.9918  -15.7452    0.0000 C   0  0  0  0  0  0  0  0  0  0  0  0
   -3.9955  -14.6305    0.0000 O   0  0  0  0  0  0  0  0  0  0  0  0
   -1.6357   -9.4994    0.0000 H   0  0  0  0  0  0  0  0  0  0  0  0
   -2.5958  -11.8883    0.0000 H   0  0  0  0  0  0  0  0  0  0  0  0
   -3.3481  -10.1913    0.0000 C   0  0  0  0  0  0  0  0  0  0  0  0
   -4.6471  -10.9413    0.0000 C   0  0  0  0  0  0  0  0  0  0  0  0
   -4.6471  -12.4413    0.0000 C   0  0  0  0  0  0  0  0  0  0  0  0
   -4.6471  -13.9413    0.0000 H   0  0  0  0  0  0  0  0  0  0  0  0
   -6.1471  -12.4413    0.0000 H   0  0  0  0  0  0  0  0  0  0  0  0
   -3.5536  -12.4413    0.0000 H   0  0  0  0  0  0  0  0  0  0  0  0
   -5.9462  -10.1913    0.0000 C   0  0  0  0  0  0  0  0  0  0  0  0
   -7.2452  -10.9413    0.0000 O   0  0  0  0  0  0  0  0  0  0  0  0
   -5.9462   -8.6913    0.0000 O   0  0  0  0  0  0  0  0  0  0  0  0
   -7.2452   -7.9413    0.0000 C   0  0  0  0  0  0  0  0  0  0  0  0
   -8.5442   -7.1913    0.0000 C   0  0  0  0  0  0  0  0  0  0  0  0
   -9.8433   -6.4413    0.0000 N   0  0  0  0  0  0  0  0  0  0  0  0
  -11.1423   -5.6913    0.0000 C   0  0  0  0  0  0  0  0  0  0  0  0
  -12.4413   -4.9413    0.0000 H   0  0  0  0  0  0  0  0  0  0  0  0
  -11.6754   -6.3987    0.0000 H   0  0  0  0  0  0  0  0  0  0  0  0
  -10.7962   -4.8760    0.0000 H   0  0  0  0  0  0  0  0  0  0  0  0
   -9.0933   -5.1423    0.0000 C   0  0  0  0  0  0  0  0  0  0  0  0
   -8.3433   -3.8433    0.0000 H   0  0  0  0  0  0  0  0  0  0  0  0
   -9.8006   -4.6092    0.0000 H   0  0  0  0  0  0  0  0  0  0  0  0
   -7.7125   -5.7284    0.0000 H   0  0  0  0  0  0  0  0  0  0  0  0
  -10.5933   -7.7404    0.0000 C   0  0  0  0  0  0  0  0  0  0  0  0
  -11.3433   -9.0394    0.0000 C   0  0  0  0  0  0  0  0  0  0  0  0
  -12.0933  -10.3385    0.0000 C   0  0  0  0  0  0  0  0  0  0  0  0
  -12.8433  -11.6375    0.0000 S   0  0  0  0  0  0  0  0  0  0  0  0
  -13.5933  -12.9365    0.0000 O   0  0  0  0  0  0  0  0  0  0  0  0
  -14.1423  -10.8875    0.0000 O   0  0  0  0  0  0  0  0  0  0  0  0
  -11.5442  -12.3875    0.0000 O   0  0  0  0  0  0  0  0  0  0  0  0
  -10.7942  -11.0885    0.0000 H   0  0  0  0  0  0  0  0  0  0  0  0
  -13.3923   -9.5885    0.0000 H   0  0  0  0  0  0  0  0  0  0  0  0
  -12.6423   -8.2894    0.0000 H   0  0  0  0  0  0  0  0  0  0  0  0
  -10.0442   -9.7894    0.0000 H   0  0  0  0  0  0  0  0  0  0  0  0
   -9.3953   -8.6431    0.0000 H   0  0  0  0  0  0  0  0  0  0  0  0
  -11.4086   -7.3943    0.0000 H   0  0  0  0  0  0  0  0  0  0  0  0
   -9.1303   -8.5721    0.0000 H   0  0  0  0  0  0  0  0  0  0  0  0
   -7.6415   -5.9934    0.0000 H   0  0  0  0  0  0  0  0  0  0  0  0
   -7.9952   -9.2404    0.0000 H   0  0  0  0  0  0  0  0  0  0  0  0
   -6.4952   -6.6423    0.0000 H   0  0  0  0  0  0  0  0  0  0  0  0
   -3.5309   -8.7025    0.0000 H   0  0  0  0  0  0  0  0  0  0  0  0
   -0.0000  -10.3923    0.0000 C   0  0  0  0  0  0  0  0  0  0  0  0
   -0.7500   -9.0933    0.0000 C   0  0  0  0  0  0  0  0  0  0  0  0
   -2.2500   -9.0933    0.0000 C   0  0  0  0  0  0  0  0  0  0  0  0
   -3.7388   -8.9104    0.0000 H   0  0  0  0  0  0  0  0  0  0  0  0
   -2.6130  -10.5487    0.0000 H   0  0  0  0  0  0  0  0  0  0  0  0
   -2.2500   -7.5933    0.0000 H   0  0  0  0  0  0  0  0  0  0  0  0
   -0.0000   -7.7942    0.0000 C   0  0  0  0  0  0  0  0  0  0  0  0
    1.5000   -7.7942    0.0000 O   0  0  0  0  0  0  0  0  0  0  0  0
   -0.7500   -6.4952    0.0000 O   0  0  0  0  0  0  0  0  0  0  0  0
   -0.0000   -5.1962    0.0000 C   0  0  0  0  0  0  0  0  0  0  0  0
    0.7500   -3.8971    0.0000 C   0  0  0  0  0  0  0  0  0  0  0  0
    1.5000   -2.5981    0.0000 O   0  0  0  0  0  0  0  0  0  0  0  0
    0.7500   -1.2990    0.0000 C   0  0  0  0  0  0  0  0  0  0  0  0
    1.5000    0.0000    0.0000 C   0  0  0  0  0  0  0  0  0  0  0  0
    3.0000    0.0000    0.0000 H   0  0  0  0  0  0  0  0  0  0  0  0
    0.7500    1.2990    0.0000 C   0  0  0  0  0  0  0  0  0  0  0  0
    1.5000    2.5981    0.0000 H   0  0  0  0  0  0  0  0  0  0  0  0
   -0.7500    1.2990    0.0000 C   0  0  0  0  0  0  0  0  0  0  0  0
   -1.5000    2.5981    0.0000 H   0  0  0  0  0  0  0  0  0  0  0  0
   -1.5000    0.0000    0.0000 C   0  0  0  0  0  0  0  0  0  0  0  0
   -3.0000    0.0000    0.0000 H   0  0  0  0  0  0  0  0  0  0  0  0
   -0.7500   -1.2990    0.0000 C   0  0  0  0  0  0  0  0  0  0  0  0
   -1.5000   -2.5981    0.0000 H   0  0  0  0  0  0  0  0  0  0  0  0
   -0.5490   -3.1471    0.0000 H   0  0  0  0  0  0  0  0  0  0  0  0
    2.0490   -4.6471    0.0000 H   0  0  0  0  0  0  0  0  0  0  0  0
   -1.2990   -4.4462    0.0000 H   0  0  0  0  0  0  0  0  0  0  0  0
    1.2990   -5.9462    0.0000 H   0  0  0  0  0  0  0  0  0  0  0  0
    1.4888  -10.2095    0.0000 H   0  0  0  0  0  0  0  0  0  0  0  0
  1  2  1  0
  1 21  1  0
  1 22  1  0
  1 23  0  0
  2  3  1  0
  2  7  1  0
  2 61  0  0
  3  4  1  0
  3  5  1  0
  3  6  1  0
  7  8  2  0
  7  9  1  0
  9 10  1  0
 10 11  1  0
 10 19  1  0
 11 12  2  0
 11 13  1  0
 13 14  1  0
 13 15  1  0
 13 16  1  0
 16 17  1  0
 16 18  1  0
 16 19  1  0
 19 20  2  0
 23 24  2  0
 23 60  1  0
 24 25  1  0
 24 29  1  0
 25 26  1  0
 25 27  1  0
 25 28  1  0
 29 30  2  0
 29 31  1  0
 31 32  1  0
 32 33  1  0
 32 58  1  0
 32 59  1  0
 33 34  1  0
 33 56  1  0
 33 57  1  0
 34 35  1  0
 34 39  1  0
 34 43  1  0
 35 36  1  0
 35 37  1  0
 35 38  1  0
 39 40  1  0
 39 41  1  0
 39 42  1  0
 43 44  1  0
 43 54  1  0
 43 55  1  0
 44 45  1  0
 44 52  1  0
 44 53  1  0
 45 46  1  0
 45 50  1  0
 45 51  1  0
 46 47  2  0
 46 48  2  0
 46 49  1  0
 61 62  2  0
 61 88  1  0
 62 63  1  0
 62 67  1  0
 63 64  1  0
 63 65  1  0
 63 66  1  0
 67 68  2  0
 67 69  1  0
 69 70  1  0
 70 71  1  0
 70 86  1  0
 70 87  1  0
 71 72  1  0
 71 84  1  0
 71 85  1  0
 72 73  1  0
 73 74  2  0
 73 82  1  0
 74 75  1  0
 74 76  1  0
 76 77  1  0
 76 78  2  0
 78 79  1  0
 78 80  1  0
 80 81  1  0
 80 82  2  0
 82 83  1  0
M  CHG  1  34   1
M  END
